@<TRIPOS>MOLECULE
5ZY
   75    79     1     0     0
SMALL
bcc


@<TRIPOS>ATOM
      1 C18        -13.8540    -0.6510    13.3770 c3         1 5ZY       0.207400
      2 C19        -13.3820    -1.8880    12.6400 c5         1 5ZY       0.099100
      3 C21        -11.1760    -2.3130    12.0390 c5         1 5ZY       0.265800
      4 C23         -9.5120    -0.4590    12.4880 cc         1 5ZY       0.476700
      5 C25         -8.2970    -0.5980    10.7630 ca         1 5ZY      -0.209200
      6 C26         -7.3760    -0.4800     9.7070 ca         1 5ZY       0.758200
      7 C29         -8.3960    -2.3010     8.7400 ca         1 5ZY       0.674900
      8 C31         -9.2230    -1.6220    10.6570 ca         1 5ZY       0.448800
      9 C32        -11.3380    -2.7740    13.4850 c5         1 5ZY       0.110100
     10 O11        -15.3910     2.8300    16.5500 o          1 5ZY      -0.844000
     11 C34        -12.8480    -3.0150    13.5410 c5         1 5ZY       0.081100
     12 C37        -11.0120     5.0520    14.3560 c5         1 5ZY       0.394300
     13 O12        -13.6360     1.0750    17.3800 o          1 5ZY      -0.844000
     14 C40         -8.0160     3.6100    14.5140 c3         1 5ZY      -0.105400
     15 O13        -13.5650     2.1160    15.0060 os         1 5ZY      -0.727800
     16 C41         -6.8480     2.7170    14.1100 c3         1 5ZY      -0.055400
     17 C42         -5.9500     3.3270    13.0200 c3         1 5ZY       0.051500
     18 C44         -4.7840     2.4040    12.8200 c          1 5ZY       0.569900
     19 C02         -9.3280     6.3840    13.5610 c2         1 5ZY       0.823500
     20 C04        -11.4530     6.5210    14.3570 c5         1 5ZY       0.097100
     21 C05        -11.8280     6.8300    15.8220 c5         1 5ZY       0.091100
     22 C07        -11.7500     5.4430    16.4860 c5         1 5ZY       0.099100
     23 C08        -13.1120     4.7690    16.5360 c3         1 5ZY       0.193400
     24 N22         -9.9980    -1.5280    11.7800 na         1 5ZY      -0.244000
     25 N24         -8.4970     0.1170    11.9170 nd         1 5ZY      -0.586100
     26 N27         -6.4280     0.4610     9.6760 nv         1 5ZY      -0.965500
     27 N28         -7.4540    -1.3620     8.7050 nb         1 5ZY      -0.848000
     28 N30         -9.3190    -2.5030     9.6650 nb         1 5ZY      -0.731000
     29 N38         -9.7930     5.1080    13.6390 nh         1 5ZY      -0.767600
     30 N43         -5.5260     4.6630    13.3610 n8         1 5ZY      -0.893800
     31 O03        -10.3020     7.2370    13.9310 os         1 5ZY      -0.440400
     32 O06        -10.9080     7.7450    16.3490 oh         1 5ZY      -0.575800
     33 O09        -12.9630     3.4710    17.0660 os         1 5ZY      -0.553200
     34 O15        -12.2020     1.8690    12.9310 o          1 5ZY      -0.844000
     35 O16        -11.1150     1.2560    15.2290 o          1 5ZY      -0.844000
     36 O17        -12.8770    -0.2150    14.2900 os         1 5ZY      -0.582200
     37 O20        -12.3160    -1.5550    11.7490 os         1 5ZY      -0.393600
     38 O33        -10.5210    -3.8790    13.7130 oh         1 5ZY      -0.582800
     39 O35        -13.0970    -4.2900    13.0020 oh         1 5ZY      -0.599800
     40 O36        -10.8210     4.7110    15.7130 os         1 5ZY      -0.369600
     41 O45         -3.6230     2.7250    12.8590 o          1 5ZY      -0.546100
     42 P10        -13.9980     2.2870    16.5890 p5         1 5ZY       1.466800
     43 P14        -12.3030     1.3220    14.3230 p5         1 5ZY       1.455800
     44 H1         -14.1110     0.1210    12.6460 h1         1 5ZY       0.036700
     45 H2         -14.7730    -0.9080    13.9150 h1         1 5ZY       0.036700
     46 H3         -14.2340    -2.2560    12.0550 h1         1 5ZY       0.035700
     47 H4         -11.1020    -3.1880    11.3830 h2         1 5ZY       0.091700
     48 H5          -9.9390    -0.1470    13.4290 h5         1 5ZY       0.119800
     49 H6          -8.4060    -2.9830     7.8970 h5         1 5ZY       0.024100
     50 H7         -11.1090    -1.9490    14.1680 h1         1 5ZY       0.105700
     51 H8         -13.2390    -2.9300    14.5620 h1         1 5ZY       0.080700
     52 H9         -11.7190     4.3670    13.8810 h2         1 5ZY       0.140700
     53 H10         -9.6070     3.1230    13.1210 h1         1 5ZY       0.069700
     54 H11         -8.3970     4.1950    12.4550 h1         1 5ZY       0.069700
     55 H13         -7.6300     4.5290    14.9600 hc         1 5ZY       0.072200
     56 H14         -8.5850     3.1090    15.2990 hc         1 5ZY       0.072200
     57 H15         -6.2460     2.5190    15.0010 hc         1 5ZY       0.052700
     58 H16         -7.2180     1.7520    13.7550 hc         1 5ZY       0.052700
     59 H17         -6.5020     3.2600    12.0620 h1         1 5ZY       0.028700
     60 H18         -5.0810     1.3580    12.6090 h4         1 5ZY      -0.015800
     61 H19        -12.2730     6.7250    13.6670 h1         1 5ZY       0.079700
     62 H20        -12.8510     7.2240    15.8680 h1         1 5ZY       0.039700
     63 H21        -11.3470     5.5180    17.5000 h1         1 5ZY       0.078700
     64 H22        -13.7730     5.3740    17.1660 h1         1 5ZY       0.014200
     65 H23        -13.5630     4.7550    15.5370 h1         1 5ZY       0.014200
     66 H24         -8.0580     7.7220    13.1360 hn         1 5ZY       0.381400
     67 H25         -5.8590     0.5700     8.8540 hn         1 5ZY       0.437300
     68 H26         -6.4340     1.2130    10.3440 hn         1 5ZY       0.437300
     69 H27         -4.8540     4.9970    12.6810 hn         1 5ZY       0.357800
     70 H28         -6.3170     5.2990    13.3080 hn         1 5ZY       0.357800
     71 H30        -11.1900     7.9600    17.2450 ho         1 5ZY       0.392000
     72 H32        -10.4940    -4.0540    14.6590 ho         1 5ZY       0.408000
     73 H33        -14.0480    -4.4380    13.0010 ho         1 5ZY       0.390000
     74 C39         -8.9560     3.9640    13.3620 c3         1 5ZY       0.249800
     75 N01         -8.1690     6.7160    13.1680 n2         1 5ZY      -0.925100
@<TRIPOS>BOND
     1     1     2 1   
     2     1    36 1   
     3     1    44 1   
     4     1    45 1   
     5     2    11 1   
     6     2    37 1   
     7     2    46 1   
     8     3     9 1   
     9     3    24 1   
    10     3    37 1   
    11     3    47 1   
    12     4    24 1   
    13     4    25 2   
    14     4    48 1   
    15     5     6 ar  
    16     5     8 ar  
    17     5    25 1   
    18     6    26 1   
    19     6    27 ar  
    20     7    27 ar  
    21     7    28 ar  
    22     7    49 1   
    23     8    24 1   
    24     8    28 ar  
    25     9    11 1   
    26     9    38 1   
    27     9    50 1   
    28    10    42 1   
    29    11    39 1   
    30    11    51 1   
    31    12    20 1   
    32    12    29 1   
    33    12    40 1   
    34    12    52 1   
    35    13    42 1   
    36    14    16 1   
    37    14    55 1   
    38    14    56 1   
    39    14    74 1   
    40    15    42 1   
    41    15    43 1   
    42    16    17 1   
    43    16    57 1   
    44    16    58 1   
    45    17    18 1   
    46    17    30 1   
    47    17    59 1   
    48    18    41 2   
    49    18    60 1   
    50    19    29 1   
    51    19    31 1   
    52    19    75 2   
    53    20    21 1   
    54    20    31 1   
    55    20    61 1   
    56    21    22 1   
    57    21    32 1   
    58    21    62 1   
    59    22    23 1   
    60    22    40 1   
    61    22    63 1   
    62    23    33 1   
    63    23    64 1   
    64    23    65 1   
    65    26    67 1   
    66    26    68 1   
    67    29    74 1   
    68    30    69 1   
    69    30    70 1   
    70    32    71 1   
    71    33    42 1   
    72    34    43 1   
    73    35    43 1   
    74    36    43 1   
    75    38    72 1   
    76    39    73 1   
    77    53    74 1   
    78    54    74 1   
    79    66    75 1   
@<TRIPOS>SUBSTRUCTURE
     1 5ZY         1 TEMP              0 ****  ****    0 ROOT
