@<TRIPOS>MOLECULE
5ZY
   75    79     1     0     0
SMALL
No Charge or Current Charge


@<TRIPOS>ATOM
      1 C18        -13.9460    -0.5870    13.5880 c3         1 5ZY       0.230600
      2 C19        -13.1680    -1.7250    12.8480 c5         1 5ZY       0.122300
      3 C21        -10.9170    -1.8810    12.2090 c5         1 5ZY       0.318300
      4 C23         -9.0150    -0.2200    12.5600 cc         1 5ZY       0.476700
      5 C25         -8.2090    -0.1590    10.5620 ca         1 5ZY      -0.078600
      6 C26         -7.4780     0.0840     9.3780 ca         1 5ZY       0.429900
      7 C29         -8.8780    -1.3460     8.2670 ca         1 5ZY       0.148900
      8 C31         -9.2740    -1.0220    10.4970 ca         1 5ZY       0.120500
      9 C32        -10.9910    -2.2870    13.7160 c5         1 5ZY       0.133300
     10 O11        -15.6530     3.0290    15.9560 o          1 5ZY      -0.844000
     11 C34        -12.4560    -2.8030    13.7520 c5         1 5ZY       0.104300
     12 C37        -11.2420     4.6280    14.2070 c5         1 5ZY       0.417500
     13 O12        -14.5770     1.2450    17.2290 o          1 5ZY      -0.844000
     14 C40         -7.8160     3.9380    14.5680 c3         1 5ZY      -0.105400
     15 O13        -13.5020     2.1160    15.0330 os         1 5ZY      -0.727800
     16 C41         -6.7300     2.8310    14.6060 c3         1 5ZY      -0.055400
     17 C42         -5.8300     2.7320    13.3430 c3         1 5ZY       0.051500
     18 C44         -5.0020     1.3940    13.3680 c          1 5ZY       0.569900
     19 C02         -9.8120     6.0190    13.0630 c2         1 5ZY       0.823500
     20 C04        -11.7730     6.0990    14.1070 c5         1 5ZY       0.120300
     21 C05        -11.6470     6.6490    15.5820 c5         1 5ZY       0.114300
     22 C07        -11.8410     5.3080    16.3610 c5         1 5ZY       0.122300
     23 C08        -13.3290     4.8350    16.4460 c3         1 5ZY       0.216600
     24 N22         -9.7880    -1.0680    11.7600 na         1 5ZY      -0.273300
     25 N24         -8.0230     0.3580    11.8490 nd         1 5ZY      -0.586100
     26 N27         -6.4140     0.9290     9.3240 nv         1 5ZY      -1.075900
     27 N28         -7.8130    -0.5090     8.2220 nb         1 5ZY      -0.322000
     28 N30         -9.6340    -1.6380     9.3520 nb         1 5ZY      -0.205000
     29 N38         -9.9610     4.7440    13.5070 nh         1 5ZY      -0.767600
     30 N43         -5.0400     4.0010    13.1620 n8         1 5ZY      -1.004200
     31 O03        -10.8860     6.8290    13.2160 os         1 5ZY      -0.463600
     32 O06        -10.3720     7.2560    15.8880 oh         1 5ZY      -0.698000
     33 O09        -13.3860     3.5190    17.0120 os         1 5ZY      -0.576400
     34 O15        -11.4520     1.1140    13.9960 o          1 5ZY      -0.844000
     35 O16        -11.6960     0.8810    16.4130 o          1 5ZY      -0.844000
     36 O17        -13.3810    -0.3060    14.8810 os         1 5ZY      -0.605400
     37 O20        -12.1450    -1.1640    11.9830 os         1 5ZY      -0.440000
     38 O33        -10.0840    -3.3340    14.0930 oh         1 5ZY      -0.705000
     39 O35        -12.5210    -4.1330    13.1930 oh         1 5ZY      -0.722000
     40 O36        -11.0110     4.3870    15.6090 os         1 5ZY      -0.416000
     41 O45         -3.7850     1.3270    13.2000 o          1 5ZY      -0.546100
     42 P10        -14.3440     2.4150    16.3310 p5         1 5ZY       1.466800
     43 P14        -12.4230     0.9700    15.1140 p5         1 5ZY       1.455800
     44 H1         -13.9700     0.3100    12.9550 h1         1 5ZY       0.036700
     45 H2         -14.9850    -0.9170    13.7170 h1         1 5ZY       0.036700
     46 H3         -13.8990    -2.2200    12.1940 h1         1 5ZY       0.035700
     47 H4         -10.9090    -2.7860    11.5870 h2         1 5ZY       0.091700
     48 H5          -9.2050    -0.0760    13.6180 h5         1 5ZY       0.119800
     49 H6          -9.1560    -1.8330     7.3340 h5         1 5ZY       0.024100
     50 H7         -10.8710    -1.4120    14.3670 h1         1 5ZY       0.105700
     51 H8         -12.8540    -2.7980    14.7780 h1         1 5ZY       0.080700
     52 H9         -11.9360     3.8960    13.7650 h2         1 5ZY       0.140700
     53 H10         -9.3850     2.7300    13.7210 h1         1 5ZY       0.069700
     54 H11         -8.4710     3.6320    12.5140 h1         1 5ZY       0.069700
     55 H13         -7.3490     4.9150    14.3990 hc         1 5ZY       0.072200
     56 H14         -8.2890     3.9920    15.5550 hc         1 5ZY       0.072200
     57 H15         -6.0920     2.9910    15.4850 hc         1 5ZY       0.052700
     58 H16         -7.2310     1.8670    14.7670 hc         1 5ZY       0.052700
     59 H17         -6.4860     2.6400    12.4680 h1         1 5ZY       0.028700
     60 H18         -5.5980     0.4730    13.5540 h4         1 5ZY      -0.015800
     61 H19        -12.8040     6.1410    13.7320 h1         1 5ZY       0.079700
     62 H20        -12.4580     7.3560    15.8030 h1         1 5ZY       0.039700
     63 H21        -11.4540     5.3770    17.3860 h1         1 5ZY       0.078700
     64 H22        -13.8860     5.5400    17.0770 h1         1 5ZY       0.014200
     65 H23        -13.7810     4.8610    15.4460 h1         1 5ZY       0.014200
     66 H24         -9.0720     7.3430    12.0380 hn         1 5ZY       0.381400
     67 H25         -6.1190     1.2600     8.4090 hn         1 5ZY       0.492500
     68 H26         -6.2940     1.5690    10.1030 hn         1 5ZY       0.492500
     69 H27         -4.4750     3.9360    12.3050 hn         1 5ZY       0.413000
     70 H28         -5.6820     4.7800    12.9710 hn         1 5ZY       0.413000
     71 H30        -10.4300     7.6220    16.8000 ho         1 5ZY       0.491000
     72 H32        -10.5920    -4.1570    13.8760 ho         1 5ZY       0.507000
     73 H33        -13.4610    -4.4310    13.2420 ho         1 5ZY       0.489000
     74 C39         -8.9220     3.7030    13.5130 c3         1 5ZY       0.249800
     75 N01         -8.8590     6.3770    12.3080 n2         1 5ZY      -0.925100
@<TRIPOS>BOND
     1     1     2 1   
     2     1    36 1   
     3     1    44 1   
     4     1    45 1   
     5     2    11 1   
     6     2    37 1   
     7     2    46 1   
     8     3     9 1   
     9     3    24 1   
    10     3    37 1   
    11     3    47 1   
    12     4    24 1   
    13     4    25 2   
    14     4    48 1   
    15     5     6 ar  
    16     5     8 ar  
    17     5    25 1   
    18     6    26 1   
    19     6    27 ar  
    20     7    27 ar  
    21     7    28 ar  
    22     7    49 1   
    23     8    24 1   
    24     8    28 ar  
    25     9    11 1   
    26     9    38 1   
    27     9    50 1   
    28    10    42 1   
    29    11    39 1   
    30    11    51 1   
    31    12    20 1   
    32    12    29 1   
    33    12    40 1   
    34    12    52 1   
    35    13    42 1   
    36    14    16 1   
    37    14    55 1   
    38    14    56 1   
    39    14    74 1   
    40    15    42 1   
    41    15    43 1   
    42    16    17 1   
    43    16    57 1   
    44    16    58 1   
    45    17    18 1   
    46    17    30 1   
    47    17    59 1   
    48    18    41 2   
    49    18    60 1   
    50    19    29 1   
    51    19    31 1   
    52    19    75 2   
    53    20    21 1   
    54    20    31 1   
    55    20    61 1   
    56    21    22 1   
    57    21    32 1   
    58    21    62 1   
    59    22    23 1   
    60    22    40 1   
    61    22    63 1   
    62    23    33 1   
    63    23    64 1   
    64    23    65 1   
    65    26    67 1   
    66    26    68 1   
    67    29    74 1   
    68    30    69 1   
    69    30    70 1   
    70    32    71 1   
    71    33    42 1   
    72    34    43 1   
    73    35    43 1   
    74    36    43 1   
    75    38    72 1   
    76    39    73 1   
    77    53    74 1   
    78    54    74 1   
    79    66    75 1   
@<TRIPOS>SUBSTRUCTURE
     1 5ZY         1 TEMP              0 ****  ****    0 ROOT
