@<TRIPOS>MOLECULE
5ZZ
   25    25     1     0     0
SMALL
No Charge or Current Charge


@<TRIPOS>ATOM
      1 C2          -1.1330    -0.1820     0.7820 c5         1 5ZZ       0.274200
      2 C4           1.3080    -0.0240     0.9230 c5         1 5ZZ       0.046500
      3 C5           1.1490    -1.3480     0.0460 c5         1 5ZZ       0.124000
      4 S1          -0.6030    -1.9520     0.4670 ss         1 5ZZ      -0.681000
      5 C4A          1.8150     1.3170     0.2290 c          1 5ZZ       0.726000
      6 O41          2.6360     1.2810    -0.6780 o          1 5ZZ      -0.743500
      7 N3           0.0290     0.3120     1.5930 n7         1 5ZZ      -0.836400
      8 C2B         -2.4090    -0.1960     1.6620 c3         1 5ZZ      -0.040100
      9 C2A         -1.4380     0.6420    -0.5860 c          1 5ZZ       0.733000
     10 O21         -2.3920     0.3320    -1.2950 o          1 5ZZ      -0.731000
     11 O22         -0.7250     1.5970    -0.8780 o          1 5ZZ      -0.731000
     12 C5A          2.2370    -2.4030     0.4660 c3         1 5ZZ      -0.060600
     13 C5B          1.2370    -1.2180    -1.5030 c3         1 5ZZ      -0.060600
     14 H1           2.0500    -0.2090     1.7110 h1         1 5ZZ       0.039700
     15 H3           0.1070     1.3350     1.4140 hn         1 5ZZ       0.474000
     16 H5          -2.2420    -0.7260     2.6070 hc         1 5ZZ       0.016367
     17 H6          -2.7300     0.8250     1.9030 hc         1 5ZZ       0.016367
     18 H7          -3.2410    -0.6920     1.1480 hc         1 5ZZ       0.016367
     19 H9           2.1820    -2.6210     1.5390 hc         1 5ZZ       0.026367
     20 H10          2.1030    -3.3510    -0.0690 hc         1 5ZZ       0.026367
     21 H11          3.2480    -2.0370     0.2530 hc         1 5ZZ       0.026367
     22 H12          2.2610    -1.0100    -1.8340 hc         1 5ZZ       0.026367
     23 H13          0.9350    -2.1530    -1.9890 hc         1 5ZZ       0.026367
     24 H14          0.5950    -0.4290    -1.9010 hc         1 5ZZ       0.026367
     25 O42          1.5180     2.3800     0.7690 o          1 5ZZ      -0.743500
@<TRIPOS>BOND
     1     1     4 1   
     2     1     7 1   
     3     1     8 1   
     4     1     9 1   
     5     2     3 1   
     6     2     5 1   
     7     2     7 1   
     8     2    14 1   
     9     3     4 1   
    10     3    12 1   
    11     3    13 1   
    12     5     6 1   
    13     5    25 1   
    14     7    15 1   
    15     8    16 1   
    16     8    17 1   
    17     8    18 1   
    18     9    10 1   
    19     9    11 1   
    20    12    19 1   
    21    12    20 1   
    22    12    21 1   
    23    13    22 1   
    24    13    23 1   
    25    13    24 1   
@<TRIPOS>SUBSTRUCTURE
     1 5ZZ         1 TEMP              0 ****  ****    0 ROOT
