@<TRIPOS>MOLECULE
5ZZ
   25    25     1     0     0
SMALL
abcg2


@<TRIPOS>ATOM
      1 C2          -1.2730    -0.0720     0.5290 c5         1 5ZZ       0.274200
      2 C4           1.0770     0.0310     0.8800 c5         1 5ZZ       0.046500
      3 C5           1.1180    -1.1770    -0.1050 c5         1 5ZZ       0.124000
      4 S1          -0.6360    -1.7140    -0.1470 ss         1 5ZZ      -0.681000
      5 C4A          2.3350     0.9150     0.7450 c          1 5ZZ       0.726000
      6 O41          3.3730     0.4780     1.2790 o          1 5ZZ      -0.743500
      7 N3          -0.1330     0.7790     0.6560 n7         1 5ZZ      -0.836400
      8 C2B         -1.9260    -0.3430     1.8740 c3         1 5ZZ      -0.040100
      9 C2A         -2.2790     0.4670    -0.5210 c          1 5ZZ       0.733000
     10 O21         -3.4150    -0.0350    -0.5000 o          1 5ZZ      -0.731000
     11 O22         -1.8560     1.3360    -1.3100 o          1 5ZZ      -0.731000
     12 C5A          1.9880    -2.3110     0.4180 c3         1 5ZZ      -0.060600
     13 C5B          1.5470    -0.7720    -1.5130 c3         1 5ZZ      -0.060600
     14 H1           1.0560    -0.3920     1.8920 h1         1 5ZZ       0.039700
     15 H3          -0.0460     1.3430    -0.1810 hn         1 5ZZ       0.474000
     16 H5          -1.1920    -0.7140     2.5900 hc         1 5ZZ       0.016367
     17 H6          -2.3570     0.5770     2.2760 hc         1 5ZZ       0.016367
     18 H7          -2.7200    -1.0810     1.7910 hc         1 5ZZ       0.016367
     19 H9           1.6570    -2.6370     1.4060 hc         1 5ZZ       0.026367
     20 H10          1.9660    -3.1750    -0.2480 hc         1 5ZZ       0.026367
     21 H11          3.0220    -1.9760     0.5000 hc         1 5ZZ       0.026367
     22 H12          2.5980    -0.4760    -1.5370 hc         1 5ZZ       0.026367
     23 H13          1.4250    -1.6100    -2.2000 hc         1 5ZZ       0.026367
     24 H14          0.9480     0.0570    -1.8900 hc         1 5ZZ       0.026367
     25 O42          2.2180     1.9720     0.0960 o          1 5ZZ      -0.743500
@<TRIPOS>BOND
     1     1     4 1   
     2     1     7 1   
     3     1     8 1   
     4     1     9 1   
     5     2     3 1   
     6     2     5 1   
     7     2     7 1   
     8     2    14 1   
     9     3     4 1   
    10     3    12 1   
    11     3    13 1   
    12     5     6 1   
    13     5    25 1   
    14     7    15 1   
    15     8    16 1   
    16     8    17 1   
    17     8    18 1   
    18     9    10 1   
    19     9    11 1   
    20    12    19 1   
    21    12    20 1   
    22    12    21 1   
    23    13    22 1   
    24    13    23 1   
    25    13    24 1   
@<TRIPOS>SUBSTRUCTURE
     1 5ZZ         1 TEMP              0 ****  ****    0 ROOT
