@<TRIPOS>MOLECULE
200
   22    22     1     0     0
SMALL
bcc


@<TRIPOS>ATOM
      1 N           19.8150    61.9720    19.3400 n8         1 200      -0.879800
      2 CA          18.8170    62.9710    19.0140 c3         1 200       0.025500
      3 C           17.3830    62.4440    19.2790 c          1 200       0.935600
      4 O           16.4980    63.3160    19.3810 o          1 200      -0.831800
      5 OXT         17.2300    61.2080    19.3200 o          1 200      -0.831800
      6 CB          18.8700    63.4830    17.5540 c3         1 200      -0.073100
      7 CG          20.1930    64.1000    17.2090 ca         1 200      -0.041300
      8 CD1         21.1840    63.3800    16.5480 ca         1 200      -0.128500
      9 CD2         20.4830    65.4090    17.5940 ca         1 200      -0.128500
     10 CE1         22.4250    63.9400    16.2690 ca         1 200      -0.126500
     11 CE2         21.7140    65.9870    17.3270 ca         1 200      -0.126500
     12 CZ          22.6780    65.2430    16.6630 ca         1 200       0.008400
     13 CL          24.2220    65.9590    16.3190 cl         1 200      -0.153400
     14 H           19.5590    61.0980    18.8970 hn         1 200       0.324300
     15 H2          20.7220    62.2370    18.9750 hn         1 200       0.324300
     16 HA          18.9770    63.8400    19.6630 h1         1 200       0.045700
     17 HB2         18.0770    64.2200    17.4130 hc         1 200       0.057700
     18 HB3         18.6620    62.6500    16.8760 hc         1 200       0.057700
     19 HD1         20.9860    62.3630    16.2300 ha         1 200       0.138000
     20 HD2         19.7310    65.9950    18.1100 ha         1 200       0.138000
     21 HE1         23.1790    63.3650    15.7500 ha         1 200       0.132500
     22 HE2         21.9180    67.0060    17.6300 ha         1 200       0.132500
@<TRIPOS>BOND
     1     1     2 1   
     2     1    14 1   
     3     1    15 1   
     4     2     3 1   
     5     2     6 1   
     6     2    16 1   
     7     3     4 1   
     8     3     5 1   
     9     6     7 1   
    10     6    17 1   
    11     6    18 1   
    12     7     8 ar  
    13     7     9 ar  
    14     8    10 ar  
    15     8    19 1   
    16     9    11 ar  
    17     9    20 1   
    18    10    12 ar  
    19    10    21 1   
    20    11    12 ar  
    21    11    22 1   
    22    12    13 1   
@<TRIPOS>SUBSTRUCTURE
     1 200         1 TEMP              0 ****  ****    0 ROOT
