@<TRIPOS>MOLECULE
201
   38    40     1     0     0
SMALL
abcg2


@<TRIPOS>ATOM
      1 C4           3.3670    -1.2050    -0.1040 ca         1 201      -0.153600
      2 C2           1.9780    -1.1920    -0.0920 ca         1 201      -0.044000
      3 C3           1.2610     0.0040    -0.0680 cp         1 201      -0.101000
      4 C1           1.9670     1.2030    -0.0540 ca         1 201      -0.063000
      5 C7           3.3580     1.2130    -0.0470 ca         1 201      -0.192600
      6 C6           4.0490     0.0060    -0.0800 ca         1 201      -0.051000
      7 C23         -0.2150     0.0010    -0.0530 cp         1 201       0.012000
      8 C8          -0.9250    -0.9740     0.6500 ca         1 201      -0.109500
      9 C12         -2.3090    -0.9740     0.6700 ca         1 201      -0.101000
     10 C16         -3.0410    -0.0020    -0.0130 cp         1 201      -0.065000
     11 C13         -2.3310     0.9710    -0.7180 ca         1 201      -0.101000
     12 C9          -0.9460     0.9720    -0.7370 ca         1 201      -0.109500
     13 C17         -4.5170    -0.0020     0.0100 cp         1 201      -0.010000
     14 C19         -5.2330     1.1970     0.0200 ca         1 201      -0.105000
     15 C22         -6.6200     1.1980     0.0430 ca         1 201      -0.114500
     16 C21         -7.3190    -0.0020     0.0590 ca         1 201      -0.122000
     17 C20         -6.6200    -1.2020     0.0510 ca         1 201      -0.114500
     18 C18         -5.2330    -1.2010     0.0250 ca         1 201      -0.105000
     19 C5           4.1330    -2.5240    -0.1500 c          1 201       0.715600
     20 C11          4.0440     2.5430    -0.0110 c          1 201       0.622700
     21 O3           3.4460     3.5700    -0.3070 o          1 201      -0.644100
     22 N1           5.3340     2.5420     0.3580 nt         1 201      -0.605000
     23 O1           5.3760    -2.4420    -0.1630 o          1 201      -0.716000
     24 O2           3.4490    -3.5630    -0.1680 o          1 201      -0.716000
     25 H2           1.4480    -2.1360    -0.1240 ha         1 201       0.134000
     26 H1           1.4310     2.1430    -0.0200 ha         1 201       0.115000
     27 H6           5.1310    -0.0250    -0.1070 ha         1 201       0.129000
     28 H8          -0.3930    -1.7300     1.2130 ha         1 201       0.123000
     29 H12         -2.8230    -1.7300     1.2510 ha         1 201       0.104000
     30 H13         -2.8610     1.7270    -1.2830 ha         1 201       0.104000
     31 H9          -0.4320     1.7290    -1.3170 ha         1 201       0.123000
     32 H19         -4.7030     2.1420     0.0300 ha         1 201       0.115500
     33 H22         -7.1550     2.1380     0.0570 ha         1 201       0.105000
     34 H21         -8.4010    -0.0020     0.0790 ha         1 201       0.103000
     35 H20         -7.1550    -2.1430     0.0560 ha         1 201       0.105000
     36 H18         -4.7030    -2.1460    -0.0030 ha         1 201       0.115500
     37 HN11         5.8240     3.4170     0.4430 hn         1 201       0.308500
     38 HN12         5.7900     1.7300     0.7360 hn         1 201       0.308500
@<TRIPOS>BOND
     1     1     2 ar  
     2     1     6 ar  
     3     1    19 1   
     4     2     3 ar  
     5     2    25 1   
     6     3     4 ar  
     7     3     7 1   
     8     4     5 ar  
     9     4    26 1   
    10     5     6 ar  
    11     5    20 1   
    12     6    27 1   
    13     7     8 ar  
    14     7    12 ar  
    15     8     9 ar  
    16     8    28 1   
    17     9    10 ar  
    18     9    29 1   
    19    10    11 ar  
    20    10    13 1   
    21    11    12 ar  
    22    11    30 1   
    23    12    31 1   
    24    13    14 ar  
    25    13    18 ar  
    26    14    15 ar  
    27    14    32 1   
    28    15    16 ar  
    29    15    33 1   
    30    16    17 ar  
    31    16    34 1   
    32    17    18 ar  
    33    17    35 1   
    34    18    36 1   
    35    19    23 1   
    36    19    24 1   
    37    20    21 2   
    38    20    22 1   
    39    22    37 1   
    40    22    38 1   
@<TRIPOS>SUBSTRUCTURE
     1 201         1 TEMP              0 ****  ****    0 ROOT
