@<TRIPOS>MOLECULE
201
   38    40     1     0     0
SMALL
No Charge or Current Charge


@<TRIPOS>ATOM
      1 C4           3.4270    -1.2170    -0.0490 ca         1 201      -0.153600
      2 C2           2.0150    -1.2050    -0.0480 ca         1 201      -0.044000
      3 C3           1.2830     0.0060    -0.0020 cp         1 201      -0.101000
      4 C1           2.0070     1.2210     0.0440 ca         1 201      -0.063000
      5 C7           3.4190     1.2450     0.0450 ca         1 201      -0.192600
      6 C6           4.1180     0.0160    -0.0020 ca         1 201      -0.051000
      7 C23         -0.2150     0.0020    -0.0020 cp         1 201       0.012000
      8 C8          -0.9460    -1.0040     0.6760 ca         1 201      -0.109500
      9 C12         -2.3520    -1.0080     0.6760 ca         1 201      -0.101000
     10 C16         -3.0880    -0.0060    -0.0020 cp         1 201      -0.065000
     11 C13         -2.3570     1.0000    -0.6800 ca         1 201      -0.101000
     12 C9          -0.9520     1.0030    -0.6800 ca         1 201      -0.109500
     13 C17         -4.5870    -0.0100    -0.0020 cp         1 201      -0.010000
     14 C19         -5.3240     1.2020     0.0050 ca         1 201      -0.105000
     15 C22         -6.7300     1.1990     0.0060 ca         1 201      -0.114500
     16 C21         -7.4300    -0.0180    -0.0030 ca         1 201      -0.122000
     17 C20         -6.7230    -1.2300    -0.0110 ca         1 201      -0.114500
     18 C18         -5.3180    -1.2260    -0.0100 ca         1 201      -0.105000
     19 C5           4.1880    -2.5310    -0.1030 c          1 201       0.715600
     20 C11          4.1410     2.5750     0.0980 c          1 201       0.622700
     21 O3           3.5560     3.6440     0.1380 o          1 201      -0.644100
     22 N1           5.4910     2.5740     0.1020 nt         1 201      -0.605000
     23 O1           5.4100    -2.5000    -0.1180 o          1 201      -0.716000
     24 O2           3.5520    -3.5750    -0.1280 o          1 201      -0.716000
     25 H2           1.4730    -2.1460    -0.0980 ha         1 201       0.134000
     26 H1           1.4600     2.1590     0.0940 ha         1 201       0.115000
     27 H6           5.2050     0.0050    -0.0030 ha         1 201       0.129000
     28 H8          -0.4190    -1.7810     1.2240 ha         1 201       0.123000
     29 H12         -2.8730    -1.7890     1.2240 ha         1 201       0.104000
     30 H13         -2.8820     1.7780    -1.2280 ha         1 201       0.104000
     31 H9          -0.4290     1.7830    -1.2270 ha         1 201       0.123000
     32 H19         -4.8020     2.1550     0.0260 ha         1 201       0.115500
     33 H22         -7.2750     2.1400     0.0150 ha         1 201       0.105000
     34 H21         -8.5180    -0.0210    -0.0030 ha         1 201       0.103000
     35 H20         -7.2640    -2.1740    -0.0210 ha         1 201       0.105000
     36 H18         -4.7900    -2.1760    -0.0300 ha         1 201       0.115500
     37 HN11         5.9810     3.4540     0.1370 hn         1 201       0.308500
     38 HN12         5.9990     1.7050     0.0700 hn         1 201       0.308500
@<TRIPOS>BOND
     1     1     2 ar  
     2     1     6 ar  
     3     1    19 1   
     4     2     3 ar  
     5     2    25 1   
     6     3     4 ar  
     7     3     7 1   
     8     4     5 ar  
     9     4    26 1   
    10     5     6 ar  
    11     5    20 1   
    12     6    27 1   
    13     7     8 ar  
    14     7    12 ar  
    15     8     9 ar  
    16     8    28 1   
    17     9    10 ar  
    18     9    29 1   
    19    10    11 ar  
    20    10    13 1   
    21    11    12 ar  
    22    11    30 1   
    23    12    31 1   
    24    13    14 ar  
    25    13    18 ar  
    26    14    15 ar  
    27    14    32 1   
    28    15    16 ar  
    29    15    33 1   
    30    16    17 ar  
    31    16    34 1   
    32    17    18 ar  
    33    17    35 1   
    34    18    36 1   
    35    19    23 1   
    36    19    24 1   
    37    20    21 2   
    38    20    22 1   
    39    22    37 1   
    40    22    38 1   
@<TRIPOS>SUBSTRUCTURE
     1 201         1 TEMP              0 ****  ****    0 ROOT
