@<TRIPOS>MOLECULE
202
    5     4     1     0     0
SMALL
bcc


@<TRIPOS>ATOM
      1 BR          -0.0960     0.0570    -0.5460 br         1 202       1.511000
      2 O1           1.6200    -0.0080    -0.0810 oh         1 202      -0.513000
      3 O2          -0.6220     1.4230     0.0920 o          1 202      -0.630500
      4 O3          -0.7570    -1.1780     0.2190 o          1 202      -0.630500
      5 H1           1.7140     0.0590     0.8900 ho         1 202       0.263000
@<TRIPOS>BOND
     1     1     2 1   
     2     1     3 1   
     3     1     4 1   
     4     2     5 1   
@<TRIPOS>SUBSTRUCTURE
     1 202         1 TEMP              0 ****  ****    0 ROOT
