@<TRIPOS>MOLECULE
202
    5     4     1     0     0
SMALL
No Charge or Current Charge


@<TRIPOS>ATOM
      1 Br           0.1830     0.5080    -1.3880 br         1 202       1.511000
      2 O1           0.4000    -0.1510     0.4460 oh         1 202      -0.513000
      3 O2           0.3570    -0.3640     0.3120 o          1 202      -0.630500
      4 O3           0.3570    -0.3640     0.3120 o          1 202      -0.630500
      5 H1           0.5610     0.7230     0.8920 ho         1 202       0.263000
@<TRIPOS>BOND
     1     1     2 1   
     2     1     3 1   
     3     1     4 1   
     4     2     5 1   
@<TRIPOS>SUBSTRUCTURE
     1 202         1 TEMP              0 ****  ****    0 ROOT
