@<TRIPOS>MOLECULE
203
   16    17     1     0     0
SMALL
No Charge or Current Charge


@<TRIPOS>ATOM
      1 O19         -0.6320    -2.7650     0.0140 o          1 203      -0.505000
      2 C18         -0.3050    -1.5950    -0.0690 c          1 203       0.652600
      3 N17          0.9900    -1.2310    -0.1890 ns         1 203      -0.587300
      4 C13         -1.2570    -0.4870    -0.0540 cc         1 203      -0.358600
      5 C14         -0.8720     0.7850    -0.2520 cd         1 203       0.538900
      6 N15          0.3520     1.2050    -0.5040 nu         1 203      -0.840000
      7 S16          1.6220     0.2950    -0.0300 s6         1 203       1.308900
      8 O20          1.8250     0.5860     1.3870 o          1 203      -0.529500
      9 O21          2.6920     0.4800    -1.0090 o          1 203      -0.529500
     10 N10         -1.8900     1.6800    -0.2080 nd         1 203      -0.688000
     11 C11         -2.9700     0.9350     0.0170 cc         1 203       0.449400
     12 N12         -2.6320    -0.4020     0.1080 na         1 203      -0.234500
     13 H17          1.7020    -1.9390    -0.2000 hn         1 203       0.348500
     14 H15          0.5320     2.1200    -0.1290 hn         1 203       0.524000
     15 H11         -3.9900     1.2870     0.1150 h5         1 203       0.069100
     16 H12         -3.2870    -1.1590     0.2690 hn         1 203       0.381000
@<TRIPOS>BOND
     1     1     2 2   
     2     2     3 1   
     3     2     4 1   
     4     3     7 1   
     5     3    13 1   
     6     4     5 2   
     7     4    12 1   
     8     5     6 1   
     9     5    10 1   
    10     6     7 1   
    11     6    14 1   
    12     7     8 2   
    13     7     9 2   
    14    10    11 2   
    15    11    12 1   
    16    11    15 1   
    17    12    16 1   
@<TRIPOS>SUBSTRUCTURE
     1 203         1 TEMP              0 ****  ****    0 ROOT
