@<TRIPOS>MOLECULE
203
   16    17     1     0     0
SMALL
abcg2


@<TRIPOS>ATOM
      1 O19         -0.6780    -2.7500    -0.0190 o          1 203      -0.505000
      2 C18         -0.3600    -1.5840    -0.0900 c          1 203       0.652600
      3 N17          0.9630    -1.1960    -0.3250 ns         1 203      -0.587300
      4 C13         -1.2350    -0.4490    -0.0280 cc         1 203      -0.358600
      5 C14         -0.8800     0.8570    -0.2780 cd         1 203       0.538900
      6 N15          0.4130     1.2370    -0.5830 nu         1 203      -0.840000
      7 S16          1.5990     0.2910     0.0970 s6         1 203       1.308900
      8 O20          1.6110     0.4310     1.5340 o          1 203      -0.529500
      9 O21          2.8220     0.4830    -0.6390 o          1 203      -0.529500
     10 N10         -1.9390     1.6770    -0.2210 nd         1 203      -0.688000
     11 C11         -2.9560     0.8780     0.0620 cc         1 203       0.449400
     12 N12         -2.5880    -0.3960     0.1900 na         1 203      -0.234500
     13 H17          1.6560    -1.9360    -0.4050 hn         1 203       0.348500
     14 H15          0.6240     2.2290    -0.6250 hn         1 203       0.524000
     15 H11         -3.9780     1.1980     0.1860 h5         1 203       0.069100
     16 H12         -3.1930    -1.1730     0.4100 hn         1 203       0.381000
@<TRIPOS>BOND
     1     1     2 2   
     2     2     3 1   
     3     2     4 1   
     4     3     7 1   
     5     3    13 1   
     6     4     5 2   
     7     4    12 1   
     8     5     6 1   
     9     5    10 1   
    10     6     7 1   
    11     6    14 1   
    12     7     8 2   
    13     7     9 2   
    14    10    11 2   
    15    11    12 1   
    16    11    15 1   
    17    12    16 1   
@<TRIPOS>SUBSTRUCTURE
     1 203         1 TEMP              0 ****  ****    0 ROOT
