@<TRIPOS>MOLECULE
204
   22    22     1     0     0
SMALL
abcg2


@<TRIPOS>ATOM
      1 C1           1.3370     0.0460     4.3180 c3         1 204      -0.100100
      2 C2           0.0590    -0.1010     3.5310 c3         1 204       0.171600
      3 O3           0.4030    -0.0770     2.1320 os         1 204      -0.434100
      4 C4          -0.5660    -0.0990     1.2450 c          1 204       0.650700
      5 O5          -1.7520    -0.1360     1.5480 o          1 204      -0.552000
      6 C6          -0.1130    -0.0760    -0.1360 ca         1 204      -0.441600
      7 C7           1.2250    -0.0510    -0.5250 ca         1 204       0.240900
      8 N8           1.6210    -0.0320    -1.7760 nb         1 204      -0.286000
      9 C9           0.6430    -0.0370    -2.7040 ca         1 204       0.444900
     10 N10          1.0260    -0.0190    -3.9780 nv         1 204      -1.054900
     11 N11         -0.6710    -0.0590    -2.4580 nb         1 204      -0.305000
     12 C12         -1.0470    -0.0800    -1.2000 ca         1 204       0.461300
     13 O13         -2.3450    -0.1030    -0.9880 oh         1 204      -0.637300
     14 H11          1.1010     0.0280     5.3810 hc         1 204       0.049367
     15 H12          2.0310    -0.7690     4.1160 hc         1 204       0.049367
     16 H13A         1.8350     0.9920     4.1020 hc         1 204       0.049367
     17 H21         -0.4380    -1.0440     3.7640 h1         1 204       0.053200
     18 H22         -0.6330     0.7130     3.7520 h1         1 204       0.053200
     19 H7           2.0080    -0.0470     0.2250 h4         1 204       0.034100
     20 H101         2.0030     0.0000    -4.2140 hn         1 204       0.512500
     21 H102         0.3480    -0.0190    -4.7200 hn         1 204       0.512500
     22 H13         -2.4940    -0.1210    -0.0140 ho         1 204       0.528000
@<TRIPOS>BOND
     1     1     2 1   
     2     1    14 1   
     3     1    15 1   
     4     1    16 1   
     5     2     3 1   
     6     2    17 1   
     7     2    18 1   
     8     3     4 1   
     9     4     5 2   
    10     4     6 1   
    11     6     7 ar  
    12     6    12 ar  
    13     7     8 ar  
    14     7    19 1   
    15     8     9 ar  
    16     9    10 1   
    17     9    11 ar  
    18    10    20 1   
    19    10    21 1   
    20    11    12 ar  
    21    12    13 1   
    22    13    22 1   
@<TRIPOS>SUBSTRUCTURE
     1 204         1 TEMP              0 ****  ****    0 ROOT
