@<TRIPOS>MOLECULE
204
   22    22     1     0     0
SMALL
No Charge or Current Charge


@<TRIPOS>ATOM
      1 C1           1.3800    -0.0050     4.3370 c3         1 204      -0.100100
      2 C2           0.0630    -0.0730     3.5480 c3         1 204       0.171600
      3 O3           0.3960    -0.0380     2.1500 os         1 204      -0.434100
      4 C4          -0.6250    -0.0870     1.2450 c          1 204       0.650700
      5 O5          -1.8080    -0.1590     1.5500 o          1 204      -0.552000
      6 C6          -0.1750    -0.0450    -0.1730 ca         1 204      -0.441600
      7 C7           1.1910     0.0390    -0.5010 ca         1 204       0.240900
      8 N8           1.6070     0.0770    -1.7800 nb         1 204      -0.286000
      9 C9           0.6480     0.0330    -2.7100 ca         1 204       0.444900
     10 N10          1.0630     0.0710    -3.9950 nv         1 204      -1.054900
     11 N11         -0.6710    -0.0470    -2.5220 nb         1 204      -0.305000
     12 C12         -1.0760    -0.0850    -1.2460 ca         1 204       0.461300
     13 O13         -2.4100    -0.1660    -1.0340 oh         1 204      -0.637300
     14 H11          1.1780    -0.0290     5.4140 hc         1 204       0.049367
     15 H12          2.0230    -0.8570     4.0880 hc         1 204       0.049367
     16 H13A         1.9200     0.9220     4.1080 hc         1 204       0.049367
     17 H21         -0.4690    -1.0000     3.8010 h1         1 204       0.053200
     18 H22         -0.5730     0.7800     3.8210 h1         1 204       0.053200
     19 H7           1.9730     0.0750     0.2560 h4         1 204       0.034100
     20 H101         2.0460    -0.1140    -4.1830 hn         1 204       0.512500
     21 H102         0.4060    -0.2030    -4.7220 hn         1 204       0.512500
     22 H13         -2.5050    -0.1820    -0.0490 ho         1 204       0.528000
@<TRIPOS>BOND
     1     1     2 1   
     2     1    14 1   
     3     1    15 1   
     4     1    16 1   
     5     2     3 1   
     6     2    17 1   
     7     2    18 1   
     8     3     4 1   
     9     4     5 2   
    10     4     6 1   
    11     6     7 ar  
    12     6    12 ar  
    13     7     8 ar  
    14     7    19 1   
    15     8     9 ar  
    16     9    10 1   
    17     9    11 ar  
    18    10    20 1   
    19    10    21 1   
    20    11    12 ar  
    21    12    13 1   
    22    13    22 1   
@<TRIPOS>SUBSTRUCTURE
     1 204         1 TEMP              0 ****  ****    0 ROOT
