@<TRIPOS>MOLECULE
205
   26    28     1     0     0
SMALL
No Charge or Current Charge


@<TRIPOS>ATOM
      1 C1          20.7870     0.4210    27.7250 ca         1 205      -0.088000
      2 C2          21.2810     0.1110    26.4530 ca         1 205       0.020400
      3 C6          21.5740     0.0870    28.8490 ca         1 205      -0.096000
      4 C5          22.8400    -0.5500    28.6970 ca         1 205      -0.110600
      5 C4          23.3020    -0.8450    27.3870 ca         1 205      -0.081000
      6 C3          22.4910    -0.4970    26.3010 ca         1 205       0.020100
      7 C11         21.4820     1.0310    22.2100 ca         1 205       0.153000
      8 C10         21.5540    -0.1760    22.9400 ca         1 205      -0.064900
      9 C8          21.6250    -0.1670    24.3960 cc         1 205       0.530200
     10 C12         21.4050     1.0100    20.8070 ca         1 205      -0.118500
     11 C14         21.4630    -1.4160    20.8340 ca         1 205      -0.118500
     12 C13         21.3950    -0.2120    20.1160 ca         1 205      -0.093000
     13 C15         21.5410    -1.4000    22.2370 ca         1 205       0.153000
     14 C18         23.6830    -0.9070    29.9110 c          1 205       0.712600
     15 O19         23.2510    -0.6380    31.0240 o          1 205      -0.712500
     16 O20         24.7630    -1.4520    29.7330 o          1 205      -0.712500
     17 O17         22.7650    -0.6980    24.9900 os         1 205      -0.274700
     18 N17         20.6970     0.3410    25.2290 nd         1 205      -0.548100
     19 Cl16        21.5880    -2.9450    23.0890 cl         1 205      -0.167500
     20 H1          19.8210     0.9070    27.8430 ha         1 205       0.109000
     21 H6          21.1970     0.3240    29.8410 ha         1 205       0.136000
     22 H4          24.2610    -1.3300    27.2180 ha         1 205       0.150000
     23 H12         21.3580     1.9460    20.2540 ha         1 205       0.127500
     24 H14         21.4500    -2.3650    20.3040 ha         1 205       0.127500
     25 H13         21.3350    -0.2250    19.0300 ha         1 205       0.113000
     26 Cl17        21.5300     2.6000    23.0180 cl         1 205      -0.167500
@<TRIPOS>BOND
     1     1     2 ar  
     2     1     3 ar  
     3     1    20 1   
     4     2     6 ar  
     5     2    18 1   
     6     3     4 ar  
     7     3    21 1   
     8     4     5 ar  
     9     4    14 1   
    10     5     6 ar  
    11     5    22 1   
    12     6    17 1   
    13     7     8 ar  
    14     7    10 ar  
    15     7    26 1   
    16     8     9 1   
    17     8    13 ar  
    18     9    17 1   
    19     9    18 2   
    20    10    12 ar  
    21    10    23 1   
    22    11    12 ar  
    23    11    13 ar  
    24    11    24 1   
    25    12    25 1   
    26    13    19 1   
    27    14    15 1   
    28    14    16 1   
@<TRIPOS>SUBSTRUCTURE
     1 205         1 TEMP              0 ****  ****    0 ROOT
