@<TRIPOS>MOLECULE
207
   36    38     1     0     0
SMALL
abcg2


@<TRIPOS>ATOM
      1 N1           1.5500    -0.0300    -1.2980 nb         1 207      -0.848000
      2 C2           1.9700     0.1330    -2.5700 ca         1 207       0.642900
      3 C3           1.1100     0.1920    -3.6600 ca         1 207      -0.294000
      4 C4          -0.2400     0.0600    -3.3460 ca         1 207       0.011800
      5 C5          -0.6960    -0.1130    -2.0370 ca         1 207      -0.056600
      6 C6           0.2730    -0.1490    -1.0280 ca         1 207       0.700300
      7 O6          -0.1410    -0.3040     0.2250 os         1 207      -0.438300
      8 C9           0.8220    -0.2780     1.2770 c3         1 207       0.171600
      9 N7          -2.0700    -0.2080    -2.0040 nc         1 207      -0.519100
     10 C8          -2.4290    -0.0970    -3.2460 cd         1 207       0.383700
     11 N9          -1.3750     0.0670    -4.0980 na         1 207      -0.319600
     12 N2           3.3320     0.1890    -2.7310 nv         1 207      -1.038900
     13 C10          0.0920    -0.4290     2.5980 c6         1 207      -0.066700
     14 C11         -0.9290     0.6840     2.8370 c6         1 207      -0.071400
     15 C12         -1.6040     0.5410     4.1980 c6         1 207      -0.073400
     16 C13         -0.5800     0.5040     5.3260 c6         1 207      -0.075400
     17 C14          0.4430    -0.6050     5.0980 c6         1 207      -0.073400
     18 C15          1.1150    -0.4680     3.7360 c6         1 207      -0.071400
     19 H3           1.4720     0.3290    -4.6700 ha         1 207       0.127000
     20 H9C1         1.5460    -1.0880     1.1430 h1         1 207       0.047700
     21 H9C2         1.3780     0.6660     1.2530 h1         1 207       0.047700
     22 H8          -3.4440    -0.1240    -3.6110 h5         1 207       0.062800
     23 H9          -1.4380     0.1680    -5.0980 hn         1 207       0.357000
     24 H2N1         3.8490     0.4740    -1.9150 hn         1 207       0.463000
     25 H2N2         3.6660     0.6180    -3.5790 hn         1 207       0.463000
     26 H10         -0.4400    -1.3900     2.5920 hc         1 207       0.061700
     27 H111        -0.4180     1.6540     2.7880 hc         1 207       0.043200
     28 H112        -1.6840     0.6880     2.0480 hc         1 207       0.043200
     29 H121        -2.1970    -0.3800     4.2130 hc         1 207       0.038950
     30 H122        -2.3090     1.3630     4.3500 hc         1 207       0.038950
     31 H131        -1.0770     0.3710     6.2900 hc         1 207       0.037200
     32 H132        -0.0610     1.4680     5.3710 hc         1 207       0.037200
     33 H141        -0.0570    -1.5790     5.1570 hc         1 207       0.038950
     34 H142         1.1980    -0.5950     5.8880 hc         1 207       0.038950
     35 H151         1.8150    -1.2930     3.5800 hc         1 207       0.043200
     36 H152         1.7110     0.4530     3.7160 hc         1 207       0.043200
@<TRIPOS>BOND
     1     1     2 ar  
     2     1     6 ar  
     3     2     3 ar  
     4     2    12 1   
     5     3     4 ar  
     6     3    19 1   
     7     4     5 ar  
     8     4    11 1   
     9     5     6 ar  
    10     5     9 1   
    11     6     7 1   
    12     7     8 1   
    13     8    13 1   
    14     8    20 1   
    15     8    21 1   
    16     9    10 2   
    17    10    11 1   
    18    10    22 1   
    19    11    23 1   
    20    12    24 1   
    21    12    25 1   
    22    13    14 1   
    23    13    18 1   
    24    13    26 1   
    25    14    15 1   
    26    14    27 1   
    27    14    28 1   
    28    15    16 1   
    29    15    29 1   
    30    15    30 1   
    31    16    17 1   
    32    16    31 1   
    33    16    32 1   
    34    17    18 1   
    35    17    33 1   
    36    17    34 1   
    37    18    35 1   
    38    18    36 1   
@<TRIPOS>SUBSTRUCTURE
     1 207         1 TEMP              0 ****  ****    0 ROOT
