@<TRIPOS>MOLECULE
207
   36    38     1     0     0
SMALL
No Charge or Current Charge


@<TRIPOS>ATOM
      1 N1           1.6400     0.0310    -1.3900 nb         1 207      -0.848000
      2 C2           1.9630     0.1510    -2.6690 ca         1 207       0.642900
      3 C3           1.0710     0.1560    -3.7440 ca         1 207      -0.294000
      4 C4          -0.2760     0.0120    -3.4220 ca         1 207       0.011800
      5 C5          -0.6730    -0.1210    -2.1280 ca         1 207      -0.056600
      6 C6           0.3180    -0.1080    -1.1050 ca         1 207       0.700300
      7 O6          -0.0850    -0.2410     0.2070 os         1 207      -0.438300
      8 C9           0.8690    -0.2250     1.2840 c3         1 207       0.171600
      9 N7          -2.0630    -0.2500    -2.0530 nc         1 207      -0.519100
     10 C8          -2.4400    -0.1860    -3.3480 cd         1 207       0.383700
     11 N9          -1.3670    -0.0240    -4.2370 na         1 207      -0.319600
     12 N2           3.2760     0.2870    -2.8040 nv         1 207      -1.038900
     13 C10          0.1170    -0.3850     2.6370 c6         1 207      -0.066700
     14 C11         -0.8700     0.7890     2.9060 c6         1 207      -0.071400
     15 C12         -1.6010     0.6190     4.2610 c6         1 207      -0.073400
     16 C13         -0.5950     0.4700     5.4280 c6         1 207      -0.075400
     17 C14          0.3870    -0.6980     5.1710 c6         1 207      -0.073400
     18 C15          1.1200    -0.5280     3.8170 c6         1 207      -0.071400
     19 H3           1.4130     0.2630    -4.7680 ha         1 207       0.127000
     20 H9C1         1.5840    -1.0510     1.1750 h1         1 207       0.047700
     21 H9C2         1.4310     0.7190     1.2960 h1         1 207       0.047700
     22 H8          -3.4590    -0.2500    -3.7110 h5         1 207       0.062800
     23 H9          -1.4110     0.0480    -5.2450 hn         1 207       0.357000
     24 H2N1         3.7580     0.5050    -1.9420 hn         1 207       0.463000
     25 H2N2         3.6120     0.7450    -3.6430 hn         1 207       0.463000
     26 H10         -0.4580    -1.3180     2.5600 hc         1 207       0.061700
     27 H111        -0.3240     1.7430     2.9000 hc         1 207       0.043200
     28 H112        -1.6140     0.8530     2.1000 hc         1 207       0.043200
     29 H121        -2.2540    -0.2640     4.2200 hc         1 207       0.038950
     30 H122        -2.2560     1.4820     4.4420 hc         1 207       0.038950
     31 H131        -1.1370     0.3030     6.3690 hc         1 207       0.037200
     32 H132        -0.0320     1.4060     5.5530 hc         1 207       0.037200
     33 H141        -0.1620    -1.6510     5.1770 hc         1 207       0.038950
     34 H142         1.1200    -0.7550     5.9870 hc         1 207       0.038950
     35 H151         1.7790    -1.3900     3.6480 hc         1 207       0.043200
     36 H152         1.7720     0.3570     3.8620 hc         1 207       0.043200
@<TRIPOS>BOND
     1     1     2 ar  
     2     1     6 ar  
     3     2     3 ar  
     4     2    12 1   
     5     3     4 ar  
     6     3    19 1   
     7     4     5 ar  
     8     4    11 1   
     9     5     6 ar  
    10     5     9 1   
    11     6     7 1   
    12     7     8 1   
    13     8    13 1   
    14     8    20 1   
    15     8    21 1   
    16     9    10 2   
    17    10    11 1   
    18    10    22 1   
    19    11    23 1   
    20    12    24 1   
    21    12    25 1   
    22    13    14 1   
    23    13    18 1   
    24    13    26 1   
    25    14    15 1   
    26    14    27 1   
    27    14    28 1   
    28    15    16 1   
    29    15    29 1   
    30    15    30 1   
    31    16    17 1   
    32    16    31 1   
    33    16    32 1   
    34    17    18 1   
    35    17    33 1   
    36    17    34 1   
    37    18    35 1   
    38    18    36 1   
@<TRIPOS>SUBSTRUCTURE
     1 207         1 TEMP              0 ****  ****    0 ROOT
