@<TRIPOS>MOLECULE
208
   53    56     1     0     0
SMALL
abcg2


@<TRIPOS>ATOM
      1 C30         -4.6990    -1.5170     3.0100 c3         1 208      -0.088100
      2 C28         -5.3640    -0.8660     1.8170 c3         1 208       0.177600
      3 O25         -4.5090    -0.9610     0.7060 os         1 208      -0.463000
      4 C15         -4.9870    -0.3210    -0.4470 c3         1 208       0.035300
      5 C13         -6.1730    -1.0480    -1.1270 c          1 208       0.696000
      6 O22         -6.8270    -0.3520    -1.9290 o          1 208      -0.725500
      7 O20         -6.3470    -2.2500    -0.8580 o          1 208      -0.725500
      8 C19         -3.8230    -0.2250    -1.4380 c3         1 208      -0.022100
      9 C18         -2.6690     0.5930    -0.9250 ca         1 208      -0.070300
     10 C21         -1.6880     0.0060    -0.1000 ca         1 208      -0.065000
     11 C17         -2.5690     1.9350    -1.2480 ca         1 208      -0.080000
     12 C11         -1.5020     2.6960    -0.7550 ca         1 208      -0.103800
     13 C12         -1.1060     4.0620    -0.8980 cc         1 208      -0.229200
     14 C10          0.0400     4.2120    -0.1730 cd         1 208      -0.196100
     15 C8          -0.5400     2.0770     0.0700 ca         1 208      -0.051200
     16 C14         -0.6220     0.7250     0.4010 ca         1 208      -0.144000
     17 N4           0.3870     3.0250     0.4170 na         1 208      -0.102700
     18 C9           1.5630     2.8030     1.2310 c3         1 208       0.068300
     19 C3           2.5570     1.8940     0.5860 cc         1 208       0.212300
     20 C7           3.3980     2.1410    -0.4460 cd         1 208       0.139300
     21 C26          3.6780     3.3210    -1.2900 c3         1 208      -0.116400
     22 O5           4.0680     0.9890    -0.6910 os         1 208      -0.262000
     23 N2           2.7110     0.5860     0.9850 nc         1 208      -0.638000
     24 C1           3.6080     0.0950     0.2020 cd         1 208       0.495500
     25 C6           4.1990    -1.2380     0.1770 ca         1 208      -0.116500
     26 C16          3.5190    -2.3870     0.5920 ca         1 208       0.156000
     27 CL23         1.8750    -2.3320     1.1250 cl         1 208      -0.148000
     28 C27          4.1300    -3.6320     0.5570 ca         1 208      -0.115000
     29 C31          5.4330    -3.7530     0.1020 ca         1 208      -0.089000
     30 C29          6.1240    -2.6280    -0.3230 ca         1 208      -0.123000
     31 C24          5.5110    -1.3880    -0.2850 ca         1 208      -0.078000
     32 H301        -5.3550    -1.4610     3.8790 hc         1 208       0.024367
     33 H302        -4.4860    -2.5700     2.8210 hc         1 208       0.024367
     34 H303        -3.7620    -1.0180     3.2630 hc         1 208       0.024367
     35 H281        -6.3270    -1.3520     1.6170 h1         1 208       0.018200
     36 H282        -5.5820     0.1880     2.0440 h1         1 208       0.018200
     37 H15         -5.3100     0.7050    -0.2030 h1         1 208       0.015700
     38 H191        -3.4900    -1.2370    -1.6870 hc         1 208       0.058200
     39 H192        -4.2040     0.2160    -2.3610 hc         1 208       0.058200
     40 H21         -1.7680    -1.0460     0.1410 ha         1 208       0.123000
     41 H17         -3.3140     2.3970    -1.8870 ha         1 208       0.115000
     42 H12         -1.6060     4.8340    -1.4610 ha         1 208       0.195000
     43 H10          0.6480     5.0900    -0.0210 h4         1 208       0.190000
     44 H14          0.1280     0.2430     1.0150 ha         1 208       0.120000
     45 H91          2.0040     3.7780     1.4390 h1         1 208       0.064200
     46 H92          1.2690     2.3770     2.1920 h1         1 208       0.064200
     47 H261         3.3460     3.1680    -2.3180 hc         1 208       0.057367
     48 H262         3.1550     4.1900    -0.8980 hc         1 208       0.057367
     49 H263         4.7440     3.5530    -1.3120 hc         1 208       0.057367
     50 H27          3.5820    -4.5070     0.8780 ha         1 208       0.133000
     51 H31          5.9000    -4.7280     0.0770 ha         1 208       0.115000
     52 H29          7.1420    -2.7130    -0.6790 ha         1 208       0.115000
     53 H24          6.0660    -0.5170    -0.6060 ha         1 208       0.124000
@<TRIPOS>BOND
     1     1     2 1   
     2     1    32 1   
     3     1    33 1   
     4     1    34 1   
     5     2     3 1   
     6     2    35 1   
     7     2    36 1   
     8     3     4 1   
     9     4     5 1   
    10     4     8 1   
    11     4    37 1   
    12     5     6 1   
    13     5     7 1   
    14     8     9 1   
    15     8    38 1   
    16     8    39 1   
    17     9    10 ar  
    18     9    11 ar  
    19    10    16 ar  
    20    10    40 1   
    21    11    12 ar  
    22    11    41 1   
    23    12    13 1   
    24    12    15 ar  
    25    13    14 2   
    26    13    42 1   
    27    14    17 1   
    28    14    43 1   
    29    15    16 ar  
    30    15    17 1   
    31    16    44 1   
    32    17    18 1   
    33    18    19 1   
    34    18    45 1   
    35    18    46 1   
    36    19    20 2   
    37    19    23 1   
    38    20    21 1   
    39    20    22 1   
    40    21    47 1   
    41    21    48 1   
    42    21    49 1   
    43    22    24 1   
    44    23    24 2   
    45    24    25 1   
    46    25    26 ar  
    47    25    31 ar  
    48    26    27 1   
    49    26    28 ar  
    50    28    29 ar  
    51    28    50 1   
    52    29    30 ar  
    53    29    51 1   
    54    30    31 ar  
    55    30    52 1   
    56    31    53 1   
@<TRIPOS>SUBSTRUCTURE
     1 208         1 TEMP              0 ****  ****    0 ROOT
