@<TRIPOS>MOLECULE
208
   53    56     1     0     0
SMALL
No Charge or Current Charge


@<TRIPOS>ATOM
      1 C30         -5.3020    -1.1970     2.9390 c3         1 208      -0.088100
      2 C28         -5.7840    -0.4780     1.6680 c3         1 208       0.177600
      3 O25         -4.8300    -0.7470     0.6250 os         1 208      -0.463000
      4 C15         -5.1160    -0.1120    -0.6550 c3         1 208       0.035300
      5 C13         -6.3240    -0.7470    -1.4410 c          1 208       0.696000
      6 O22         -6.8280    -0.0850    -2.3390 o          1 208      -0.725500
      7 O20         -6.7600    -1.8430    -1.1090 o          1 208      -0.725500
      8 C19         -3.8200    -0.1920    -1.4990 c3         1 208      -0.022100
      9 C18         -2.6530     0.5700    -0.8770 ca         1 208      -0.070300
     10 C21         -1.6660    -0.1190    -0.1270 ca         1 208      -0.065000
     11 C17         -2.5540     1.9700    -1.0450 ca         1 208      -0.080000
     12 C11         -1.4670     2.6300    -0.4590 ca         1 208      -0.103800
     13 C12         -1.1160     4.0180    -0.4640 cc         1 208      -0.229200
     14 C10          0.0610     4.1460     0.2630 cd         1 208      -0.196100
     15 C8          -0.5110     1.9680     0.2610 ca         1 208      -0.051200
     16 C14         -0.5830     0.5790     0.4510 ca         1 208      -0.144000
     17 N4           0.4460     2.8650     0.7190 na         1 208      -0.102700
     18 C9           1.6680     2.4820     1.4490 c3         1 208       0.068300
     19 C3           2.5960     1.6030     0.6490 cc         1 208       0.212300
     20 C7           3.0650     1.7730    -0.6270 cd         1 208       0.139300
     21 C26          2.8170     2.8700    -1.6270 c3         1 208      -0.116400
     22 O5           3.8720     0.7400    -0.9770 os         1 208      -0.262000
     23 N2           3.1070     0.4390     1.1520 nc         1 208      -0.638000
     24 C1           3.8360    -0.0370     0.1500 cd         1 208       0.495500
     25 C6           4.6390    -1.2760     0.1480 ca         1 208      -0.116500
     26 C16          4.2680    -2.4340     0.8810 ca         1 208       0.156000
     27 Cl23         2.7430    -2.5580     1.7640 cl         1 208      -0.148000
     28 C27          5.1000    -3.5680     0.8790 ca         1 208      -0.115000
     29 C31          6.3080    -3.5670     0.1650 ca         1 208      -0.089000
     30 C29          6.6890    -2.4260    -0.5550 ca         1 208      -0.123000
     31 C24          5.8630    -1.2890    -0.5600 ca         1 208      -0.078000
     32 H301        -5.9980    -1.0120     3.7650 hc         1 208       0.024367
     33 H302        -5.2450    -2.2790     2.7750 hc         1 208       0.024367
     34 H303        -4.3110    -0.8330     3.2380 hc         1 208       0.024367
     35 H281        -6.7830    -0.8450     1.3980 h1         1 208       0.018200
     36 H282        -5.8510     0.6000     1.8630 h1         1 208       0.018200
     37 H15         -5.3500     0.9500    -0.4980 h1         1 208       0.015700
     38 H191        -3.5570    -1.2460    -1.6510 hc         1 208       0.058200
     39 H192        -4.0240     0.2120    -2.4980 hc         1 208       0.058200
     40 H21         -1.7430    -1.1950     0.0120 ha         1 208       0.123000
     41 H17         -3.2990     2.5220    -1.6120 ha         1 208       0.115000
     42 H12         -1.6560     4.8310    -0.9460 ha         1 208       0.195000
     43 H10          0.6480     5.0340     0.4780 h4         1 208       0.190000
     44 H14          0.1680     0.0470     1.0290 ha         1 208       0.120000
     45 H91          2.2060     3.3930     1.7380 h1         1 208       0.064200
     46 H92          1.3740     1.9620     2.3690 h1         1 208       0.064200
     47 H261         1.8070     2.7910    -2.0470 hc         1 208       0.057367
     48 H262         2.9110     3.8560    -1.1590 hc         1 208       0.057367
     49 H263         3.5320     2.8220    -2.4570 hc         1 208       0.057367
     50 H27          4.8020    -4.4560     1.4320 ha         1 208       0.133000
     51 H31          6.9470    -4.4480     0.1690 ha         1 208       0.115000
     52 H29          7.6260    -2.4190    -1.1060 ha         1 208       0.115000
     53 H24          6.1850    -0.4090    -1.1150 ha         1 208       0.124000
@<TRIPOS>BOND
     1     1     2 1   
     2     1    32 1   
     3     1    33 1   
     4     1    34 1   
     5     2     3 1   
     6     2    35 1   
     7     2    36 1   
     8     3     4 1   
     9     4     5 1   
    10     4     8 1   
    11     4    37 1   
    12     5     6 1   
    13     5     7 1   
    14     8     9 1   
    15     8    38 1   
    16     8    39 1   
    17     9    10 ar  
    18     9    11 ar  
    19    10    16 ar  
    20    10    40 1   
    21    11    12 ar  
    22    11    41 1   
    23    12    13 1   
    24    12    15 ar  
    25    13    14 2   
    26    13    42 1   
    27    14    17 1   
    28    14    43 1   
    29    15    16 ar  
    30    15    17 1   
    31    16    44 1   
    32    17    18 1   
    33    18    19 1   
    34    18    45 1   
    35    18    46 1   
    36    19    20 2   
    37    19    23 1   
    38    20    21 1   
    39    20    22 1   
    40    21    47 1   
    41    21    48 1   
    42    21    49 1   
    43    22    24 1   
    44    23    24 2   
    45    24    25 1   
    46    25    26 ar  
    47    25    31 ar  
    48    26    27 1   
    49    26    28 ar  
    50    28    29 ar  
    51    28    50 1   
    52    29    30 ar  
    53    29    51 1   
    54    30    31 ar  
    55    30    52 1   
    56    31    53 1   
@<TRIPOS>SUBSTRUCTURE
     1 208         1 TEMP              0 ****  ****    0 ROOT
