@<TRIPOS>MOLECULE
209
   23    24     1     0     0
SMALL
bcc


@<TRIPOS>ATOM
      1 N1           0.6510    -0.0190     1.7060 n          1 209      -0.514400
      2 C2           1.4940    -0.0360     0.5760 c          1 209       0.666000
      3 C3           0.7670    -0.0500    -0.6470 cc         1 209       0.205800
      4 C4          -0.5960    -0.0510    -0.6270 cd         1 209      -0.008000
      5 N5          -1.3660    -0.0350     0.4880 n          1 209      -0.355000
      6 C6          -0.7340    -0.0210     1.7120 c          1 209       0.837500
      7 N7           1.2270    -0.0570    -1.9480 nc         1 209      -0.638000
      8 C8           0.1520    -0.0700    -2.6790 cd         1 209       0.632400
      9 N9          -0.9980    -0.0670    -1.9200 na         1 209      -0.351900
     10 N10          0.0930    -0.1530    -4.0380 nv         1 209      -0.918500
     11 C11         -2.8150    -0.0410     0.3800 c3         1 209       0.088300
     12 C15          1.2680    -0.0020     3.0280 c3         1 209       0.084300
     13 O19         -1.3610    -0.0100     2.7550 o          1 209      -0.631500
     14 O20          2.7080    -0.0370     0.6880 o          1 209      -0.574500
     15 HN9         -1.9460    -0.0920    -2.2670 hn         1 209       0.310700
     16 H101         0.9620     0.0800    -4.4940 hn         1 209       0.410800
     17 H102        -0.6940     0.3010    -4.4770 hn         1 209       0.410800
     18 H111        -3.2490    -0.0020     1.3710 h1         1 209       0.056700
     19 H112        -3.1530     0.8280    -0.1840 h1         1 209       0.056700
     20 H113        -3.1530    -0.9500    -0.1160 h1         1 209       0.056700
     21 H151         0.9830    -0.8830     3.5980 h1         1 209       0.058033
     22 H152         2.3440     0.0050     2.9090 h1         1 209       0.058033
     23 H153         0.9700     0.8880     3.5800 h1         1 209       0.058033
@<TRIPOS>BOND
     1     1     2 1   
     2     1     6 1   
     3     1    12 1   
     4     2     3 1   
     5     2    14 2   
     6     3     4 2   
     7     3     7 1   
     8     4     5 1   
     9     4     9 1   
    10     5     6 1   
    11     5    11 1   
    12     6    13 2   
    13     7     8 2   
    14     8     9 1   
    15     8    10 1   
    16     9    15 1   
    17    10    16 1   
    18    10    17 1   
    19    11    18 1   
    20    11    19 1   
    21    11    20 1   
    22    12    21 1   
    23    12    22 1   
    24    12    23 1   
@<TRIPOS>SUBSTRUCTURE
     1 209         1 TEMP              0 ****  ****    0 ROOT
