@<TRIPOS>MOLECULE
209
   23    24     1     0     0
SMALL
No Charge or Current Charge


@<TRIPOS>ATOM
      1 N1           0.6620    -0.0560     1.7480 n          1 209      -0.380400
      2 C2           1.4780    -0.0670     0.5900 c          1 209       0.523500
      3 C3           0.7210    -0.0470    -0.6980 cc         1 209       0.140500
      4 C4          -0.6430    -0.0270    -0.6850 cd         1 209       0.006600
      5 N5          -1.4000    -0.0270     0.4700 n          1 209      -0.288000
      6 C6          -0.7530    -0.0550     1.7290 c          1 209       0.628000
      7 N7           1.2130    -0.0500    -1.9870 nc         1 209      -0.638000
      8 C8           0.1370    -0.0320    -2.7250 cd         1 209       0.632400
      9 N9          -1.0250    -0.0180    -2.0120 na         1 209      -0.351500
     10 N10          0.1770    -0.0260    -4.0560 nv         1 209      -1.028900
     11 C11         -2.8820    -0.0170     0.4270 c3         1 209       0.088300
     12 C15          1.3370    -0.0750     3.0760 c3         1 209       0.084300
     13 O19         -1.4020    -0.0790     2.7670 o          1 209      -0.556000
     14 O20          2.7030    -0.0940     0.6520 o          1 209      -0.499000
     15 HN9         -1.9580    -0.0150    -2.3950 hn         1 209       0.361000
     16 H101         1.0790     0.1820    -4.4700 hn         1 209       0.466000
     17 H102        -0.6390     0.3060    -4.5580 hn         1 209       0.466000
     18 H111        -3.2680     0.7810     1.0740 h1         1 209       0.056700
     19 H112        -3.2440     0.1600    -0.5930 h1         1 209       0.056700
     20 H113        -3.2670    -0.9820     0.7790 h1         1 209       0.056700
     21 H151         1.4240    -1.1110     3.4290 h1         1 209       0.058033
     22 H152         2.3390     0.3680     3.0200 h1         1 209       0.058033
     23 H153         0.7640     0.5050     3.8110 h1         1 209       0.058033
@<TRIPOS>BOND
     1     1     2 1   
     2     1     6 1   
     3     1    12 1   
     4     2     3 1   
     5     2    14 2   
     6     3     4 2   
     7     3     7 1   
     8     4     5 1   
     9     4     9 1   
    10     5     6 1   
    11     5    11 1   
    12     6    13 2   
    13     7     8 2   
    14     8     9 1   
    15     8    10 1   
    16     9    15 1   
    17    10    16 1   
    18    10    17 1   
    19    11    18 1   
    20    11    19 1   
    21    11    20 1   
    22    12    21 1   
    23    12    22 1   
    24    12    23 1   
@<TRIPOS>SUBSTRUCTURE
     1 209         1 TEMP              0 ****  ****    0 ROOT
