@<TRIPOS>MOLECULE
20A
   53    56     1     0     0
SMALL
abcg2


@<TRIPOS>ATOM
      1 O14         48.7300    47.5790    65.8990 o          1 20A      -0.650100
      2 C8          47.5790    47.3860    66.3310 c          1 20A       0.637700
      3 N5          47.3370    47.4330    67.6590 ns         1 20A      -0.501900
      4 C18         48.3380    47.8710    68.6130 c3         1 20A       0.156300
      5 C22         48.5860    49.3670    68.6110 ca         1 20A      -0.099300
      6 C24         49.8230    49.8590    69.0250 ca         1 20A      -0.099000
      7 C26         50.0640    51.2280    69.0700 ca         1 20A      -0.107000
      8 C4          49.0680    52.1250    68.6960 ca         1 20A      -0.109000
      9 C27         47.8320    51.6410    68.2770 ca         1 20A      -0.107000
     10 C25         47.5930    50.2710    68.2370 ca         1 20A      -0.099000
     11 C3          46.4340    47.0920    65.4370 ca         1 20A      -0.371600
     12 C7          45.1250    47.3620    65.8700 ca         1 20A       0.441900
     13 N11         44.0080    47.1430    65.1890 nb         1 20A      -0.733000
     14 C13         44.2220    46.6070    63.9780 ca         1 20A       0.427500
     15 N10         43.2580    46.2900    63.0800 na         1 20A      -0.035100
     16 C17         41.8180    46.3610    63.2640 c3         1 20A       0.099600
     17 C21         41.2360    45.0620    63.8090 c3         1 20A      -0.113100
     18 N12         43.7950    45.7790    61.9410 nc         1 20A      -0.527100
     19 C2          45.4640    46.2940    63.3820 ca         1 20A      -0.360900
     20 C6          45.1050    45.7820    62.1020 cd         1 20A       0.381800
     21 C1          46.6500    46.5620    64.1230 ca         1 20A       0.504000
     22 N4          47.8910    46.3280    63.6760 nu         1 20A      -0.944200
     23 C9          48.2790    45.8270    62.3680 c6         1 20A       0.237500
     24 C15         49.6690    45.1990    62.4550 c6         1 20A      -0.131900
     25 C19         50.1280    44.7430    61.0760 c6         1 20A       0.155100
     26 O23         50.1180    45.8110    60.1300 os         1 20A      -0.454000
     27 C20         48.8140    46.3710    59.9810 c6         1 20A       0.155100
     28 C16         48.2880    46.9260    61.2980 c6         1 20A      -0.131900
     29 HN5         46.4220    47.2090    68.0080 hn         1 20A       0.317500
     30 H18         47.9900    47.5590    69.5990 h1         1 20A       0.059700
     31 H18A        49.2760    47.3500    68.4190 h1         1 20A       0.059700
     32 H24         50.6060    49.1640    69.3060 ha         1 20A       0.109500
     33 H26         51.0320    51.5940    69.3900 ha         1 20A       0.112000
     34 H4          49.2550    53.1910    68.7250 ha         1 20A       0.112000
     35 H27         47.0520    52.3310    67.9800 ha         1 20A       0.112000
     36 H25         46.6310    49.9030    67.9040 ha         1 20A       0.109500
     37 H7          44.9830    47.8230    66.8400 h4         1 20A       0.008100
     38 H17         41.6260    47.1870    63.9480 h1         1 20A       0.068700
     39 H17A        41.3840    46.6110    62.2970 h1         1 20A       0.068700
     40 H21         41.4340    44.2340    63.1260 hc         1 20A       0.047700
     41 H21A        41.6700    44.8240    64.7810 hc         1 20A       0.047700
     42 H21B        40.1560    45.1610    63.9270 hc         1 20A       0.047700
     43 H6          45.7290    45.4290    61.2990 h4         1 20A       0.044800
     44 HN4         48.6220    46.6990    64.2770 hn         1 20A       0.540000
     45 H9          47.5790    45.0430    62.0780 h1         1 20A       0.059700
     46 H15         50.3760    45.9360    62.8480 hc         1 20A       0.064200
     47 H15A        49.6580    44.3460    63.1380 hc         1 20A       0.064200
     48 H19         51.1520    44.3730    61.1110 h1         1 20A       0.048950
     49 H19A        49.4800    43.9320    60.7150 h1         1 20A       0.048950
     50 H20         48.9000    47.1570    59.2310 h1         1 20A       0.048950
     51 H20A        48.1290    45.6010    59.5970 h1         1 20A       0.048950
     52 H16         47.2860    47.3340    61.1500 hc         1 20A       0.064200
     53 H16A        48.9320    47.7410    61.6380 hc         1 20A       0.064200
@<TRIPOS>BOND
     1     1     2 2   
     2     2     3 1   
     3     2    11 1   
     4     3     4 1   
     5     3    29 1   
     6     4     5 1   
     7     4    30 1   
     8     4    31 1   
     9     5     6 ar  
    10     5    10 ar  
    11     6     7 ar  
    12     6    32 1   
    13     7     8 ar  
    14     7    33 1   
    15     8     9 ar  
    16     8    34 1   
    17     9    10 ar  
    18     9    35 1   
    19    10    36 1   
    20    11    12 ar  
    21    11    21 ar  
    22    12    13 ar  
    23    12    37 1   
    24    13    14 ar  
    25    14    15 1   
    26    14    19 ar  
    27    15    16 1   
    28    15    18 1   
    29    16    17 1   
    30    16    38 1   
    31    16    39 1   
    32    17    40 1   
    33    17    41 1   
    34    17    42 1   
    35    18    20 2   
    36    19    20 1   
    37    19    21 ar  
    38    20    43 1   
    39    21    22 1   
    40    22    23 1   
    41    22    44 1   
    42    23    24 1   
    43    23    28 1   
    44    23    45 1   
    45    24    25 1   
    46    24    46 1   
    47    24    47 1   
    48    25    26 1   
    49    25    48 1   
    50    25    49 1   
    51    26    27 1   
    52    27    28 1   
    53    27    50 1   
    54    27    51 1   
    55    28    52 1   
    56    28    53 1   
@<TRIPOS>SUBSTRUCTURE
     1 20A         1 TEMP              0 ****  ****    0 ROOT
