@<TRIPOS>MOLECULE
20A
   53    56     1     0     0
SMALL
No Charge or Current Charge


@<TRIPOS>ATOM
      1 O14         48.0990    46.1070    66.6360 o          1 20A      -0.650100
      2 C8          47.0440    46.7250    66.6330 c          1 20A       0.637700
      3 N5          46.7770    47.6910    67.5710 ns         1 20A      -0.501900
      4 C18         47.7550    48.1940    68.5350 c3         1 20A       0.156300
      5 C22         48.5670    49.3350    67.9370 ca         1 20A      -0.099300
      6 C24         49.7360    49.0660    67.1980 ca         1 20A      -0.099000
      7 C26         50.4740    50.1170    66.6270 ca         1 20A      -0.107000
      8 C4          50.0480    51.4460    66.7940 ca         1 20A      -0.109000
      9 C27         48.8840    51.7210    67.5300 ca         1 20A      -0.107000
     10 C25         48.1440    50.6700    68.0990 ca         1 20A      -0.099000
     11 C3          45.9760    46.4550    65.6320 ca         1 20A      -0.371600
     12 C7          44.6390    46.7950    65.9010 ca         1 20A       0.441900
     13 N11         43.6230    46.5720    65.0380 nb         1 20A      -0.733000
     14 C13         43.9320    45.9920    63.8650 ca         1 20A       0.427500
     15 N10         43.1520    45.6140    62.7780 na         1 20A      -0.035100
     16 C17         41.6930    45.8030    62.7080 c3         1 20A       0.099600
     17 C21         40.9040    44.6100    63.2810 c3         1 20A      -0.113100
     18 N12         43.9020    45.0180    61.7580 nc         1 20A      -0.527100
     19 C2          45.1980    45.6470    63.5400 ca         1 20A      -0.360900
     20 C6          45.1530    45.0420    62.2370 cd         1 20A       0.381800
     21 C1          46.2570    45.8670    64.3970 ca         1 20A       0.504000
     22 N4          47.5450    45.5400    64.0270 nu         1 20A      -0.944200
     23 C9          48.2310    46.2400    62.9390 c6         1 20A       0.237500
     24 C15         49.4740    45.4250    62.5190 c6         1 20A      -0.131900
     25 C19         50.2980    46.2130    61.4760 c6         1 20A       0.155100
     26 O23         50.6470    47.5100    62.0080 os         1 20A      -0.454000
     27 C20         49.5100    48.3420    62.3240 c6         1 20A       0.155100
     28 C16         48.6450    47.6560    63.4060 c6         1 20A      -0.131900
     29 HN5         45.8910    48.1740    67.5000 hn         1 20A       0.317500
     30 H18         47.2220    48.5450    69.4280 h1         1 20A       0.059700
     31 H18A        48.4230    47.3800    68.8470 h1         1 20A       0.059700
     32 H24         50.0710    48.0400    67.0620 ha         1 20A       0.109500
     33 H26         51.3740    49.9010    66.0560 ha         1 20A       0.112000
     34 H4          50.6190    52.2600    66.3520 ha         1 20A       0.112000
     35 H27         48.5520    52.7500    67.6570 ha         1 20A       0.112000
     36 H25         47.2400    50.8920    68.6620 ha         1 20A       0.109500
     37 H7          44.3500    47.2510    66.8470 h4         1 20A       0.008100
     38 H17         41.4270    46.7140    63.2590 h1         1 20A       0.068700
     39 H17A        41.4090    45.9550    61.6590 h1         1 20A       0.068700
     40 H21         41.1380    43.6920    62.7290 hc         1 20A       0.047700
     41 H21A        41.1540    44.4540    64.3380 hc         1 20A       0.047700
     42 H21B        39.8260    44.7940    63.2050 hc         1 20A       0.047700
     43 H6          45.9520    44.6220    61.6390 h4         1 20A       0.044800
     44 HN4         48.1070    45.4850    64.8860 hn         1 20A       0.540000
     45 H9          47.5730    46.3360    62.0620 h1         1 20A       0.059700
     46 H15         50.1050    45.2110    63.3930 hc         1 20A       0.064200
     47 H15A        49.1680    44.4580    62.1010 hc         1 20A       0.064200
     48 H19         51.2190    45.6650    61.2320 h1         1 20A       0.048950
     49 H19A        49.7210    46.3420    60.5480 h1         1 20A       0.048950
     50 H20         49.8680    49.3150    62.6900 h1         1 20A       0.048950
     51 H20A        48.9190    48.5150    61.4120 h1         1 20A       0.048950
     52 H16         47.7560    48.2670    63.6110 hc         1 20A       0.064200
     53 H16A        49.2170    47.6000    64.3420 hc         1 20A       0.064200
@<TRIPOS>BOND
     1     1     2 2   
     2     2     3 1   
     3     2    11 1   
     4     3     4 1   
     5     3    29 1   
     6     4     5 1   
     7     4    30 1   
     8     4    31 1   
     9     5     6 ar  
    10     5    10 ar  
    11     6     7 ar  
    12     6    32 1   
    13     7     8 ar  
    14     7    33 1   
    15     8     9 ar  
    16     8    34 1   
    17     9    10 ar  
    18     9    35 1   
    19    10    36 1   
    20    11    12 ar  
    21    11    21 ar  
    22    12    13 ar  
    23    12    37 1   
    24    13    14 ar  
    25    14    15 1   
    26    14    19 ar  
    27    15    16 1   
    28    15    18 1   
    29    16    17 1   
    30    16    38 1   
    31    16    39 1   
    32    17    40 1   
    33    17    41 1   
    34    17    42 1   
    35    18    20 2   
    36    19    20 1   
    37    19    21 ar  
    38    20    43 1   
    39    21    22 1   
    40    22    23 1   
    41    22    44 1   
    42    23    24 1   
    43    23    28 1   
    44    23    45 1   
    45    24    25 1   
    46    24    46 1   
    47    24    47 1   
    48    25    26 1   
    49    25    48 1   
    50    25    49 1   
    51    26    27 1   
    52    27    28 1   
    53    27    50 1   
    54    27    51 1   
    55    28    52 1   
    56    28    53 1   
@<TRIPOS>SUBSTRUCTURE
     1 20A         1 TEMP              0 ****  ****    0 ROOT
