@<TRIPOS>MOLECULE
20B
   28    30     1     0     0
SMALL
No Charge or Current Charge


@<TRIPOS>ATOM
      1 CAM         -2.4130     0.8520     0.3170 ca         1 20B      -0.109000
      2 CAL         -3.8110     0.8960     0.1930 ca         1 20B       0.134100
      3 OAR         -4.4880     2.0200     0.5630 oh         1 20B      -0.531100
      4 CAP         -4.5090    -0.2130    -0.3090 ca         1 20B      -0.187000
      5 CAO         -3.8050    -1.3660    -0.6910 ca         1 20B      -0.075000
      6 CAN         -2.4050    -1.4110    -0.5660 ca         1 20B      -0.116000
      7 CAK         -1.6930    -0.3040    -0.0550 ca         1 20B      -0.033800
      8 CAI         -0.2310    -0.3330     0.0750 cc         1 20B       0.209900
      9 OAJ          0.4560     0.8680    -0.0180 os         1 20B      -0.218200
     10 CAF          1.8410     0.7950    -0.0790 ca         1 20B       0.154100
     11 CAA          2.5240     1.9820    -0.4020 ca         1 20B      -0.141000
     12 CAB          3.9270     2.0120    -0.4570 ca         1 20B      -0.057000
     13 CAC          4.6610     0.8490    -0.1770 ca         1 20B      -0.147000
     14 CAD          3.9920    -0.3400     0.1570 ca         1 20B      -0.025000
     15 CAE          2.5820    -0.3660     0.2080 ca         1 20B      -0.227600
     16 CAG          1.8510    -1.6000     0.5560 c          1 20B       0.596900
     17 OAQ          2.4090    -2.6340     0.8960 o          1 20B      -0.543100
     18 CAH          0.4130    -1.4980     0.4360 cd         1 20B      -0.387200
     19 H1          -1.8900     1.7200     0.7110 ha         1 20B       0.144000
     20 H2          -5.4460     1.8700     0.4090 ho         1 20B       0.468000
     21 H3          -5.5920    -0.1870    -0.4090 ha         1 20B       0.117000
     22 H4          -4.3420    -2.2260    -1.0880 ha         1 20B       0.119000
     23 H5          -1.8770    -2.3080    -0.8830 ha         1 20B       0.125000
     24 H6           1.9570     2.8850    -0.6120 ha         1 20B       0.134000
     25 H7           4.4440     2.9360    -0.7110 ha         1 20B       0.120000
     26 H8           5.7480     0.8690    -0.2170 ha         1 20B       0.122000
     27 H9           4.5710    -1.2360     0.3750 ha         1 20B       0.138000
     28 H10         -0.1190    -2.4190     0.6360 ha         1 20B       0.213000
@<TRIPOS>BOND
     1     1     2 ar  
     2     1     7 ar  
     3     1    19 1   
     4     2     3 1   
     5     2     4 ar  
     6     3    20 1   
     7     4     5 ar  
     8     4    21 1   
     9     5     6 ar  
    10     5    22 1   
    11     6     7 ar  
    12     6    23 1   
    13     7     8 1   
    14     8     9 1   
    15     8    18 2   
    16     9    10 1   
    17    10    11 ar  
    18    10    15 ar  
    19    11    12 ar  
    20    11    24 1   
    21    12    13 ar  
    22    12    25 1   
    23    13    14 ar  
    24    13    26 1   
    25    14    15 ar  
    26    14    27 1   
    27    15    16 1   
    28    16    17 2   
    29    16    18 1   
    30    18    28 1   
@<TRIPOS>SUBSTRUCTURE
     1 20B         1 TEMP              0 ****  ****    0 ROOT
