@<TRIPOS>MOLECULE
20C
   32    34     1     0     0
SMALL
abcg2


@<TRIPOS>ATOM
      1 C1          -4.2330    -0.9680    -0.3040 ca         1 20C      -0.014300
      2 C2          -5.3480    -0.1790     0.0020 ca         1 20C      -0.114000
      3 C3          -5.2330     1.1070     0.5150 ca         1 20C      -0.105000
      4 C4          -3.9850     1.6780     0.7540 ca         1 20C      -0.060000
      5 C5          -2.8860     0.9050     0.4530 ca         1 20C      -0.135600
      6 C6          -3.0010    -0.3790    -0.0590 ca         1 20C      -0.143600
      7 C7          -1.4490     1.2260     0.5960 c          1 20C       0.583600
      8 N8          -0.7650     0.1000     0.1540 n          1 20C      -0.297600
      9 C9          -1.6340    -0.9100    -0.2610 c          1 20C       0.584600
     10 C10          0.6470    -0.0070     0.1140 ca         1 20C       0.064600
     11 O11         -1.2860    -1.9780    -0.6930 o          1 20C      -0.478000
     12 O12         -0.9400     2.2360     1.0080 o          1 20C      -0.474000
     13 C13         -4.3880    -2.3510    -0.8560 c3         1 20C      -0.048800
     14 C14          1.2920    -0.8960     0.9670 ca         1 20C      -0.191000
     15 C15          2.6720    -0.9810     0.9140 ca         1 20C      -0.029000
     16 C16          3.4180    -0.1950     0.0440 ca         1 20C      -0.265600
     17 C17          2.7480     0.7040    -0.8090 ca         1 20C       0.222100
     18 C18          1.3540     0.7840    -0.7730 ca         1 20C      -0.202000
     19 O19          3.4220     1.4720    -1.6540 oh         1 20C      -0.633100
     20 C20          4.9230    -0.2860     0.0020 c          1 20C       0.725600
     21 O21          5.4900     0.4850    -0.8370 o          1 20C      -0.692500
     22 O22          5.5010    -1.0720     0.7530 o          1 20C      -0.692500
     23 H2          -6.3370    -0.5870    -0.1680 ha         1 20C       0.109000
     24 H3          -6.1310     1.6700     0.7320 ha         1 20C       0.111000
     25 H4          -3.8890     2.6780     1.1540 ha         1 20C       0.134000
     26 H13         -3.9460    -2.4340    -1.8490 hc         1 20C       0.052033
     27 H13A        -3.8950    -3.0890    -0.2230 hc         1 20C       0.052033
     28 H13B        -5.4400    -2.6180    -0.9330 hc         1 20C       0.052033
     29 H14          0.7230    -1.4980     1.6630 ha         1 20C       0.099000
     30 H15          3.1900    -1.6690     1.5700 ha         1 20C       0.124000
     31 H18          0.8390     1.4640    -1.4400 ha         1 20C       0.113000
     32 HO19         4.4070     1.2060    -1.4760 ho         1 20C       0.552000
@<TRIPOS>BOND
     1     1     2 ar  
     2     1     6 ar  
     3     1    13 1   
     4     2     3 ar  
     5     2    23 1   
     6     3     4 ar  
     7     3    24 1   
     8     4     5 ar  
     9     4    25 1   
    10     5     6 ar  
    11     5     7 1   
    12     6     9 1   
    13     7     8 1   
    14     7    12 2   
    15     8     9 1   
    16     8    10 1   
    17     9    11 2   
    18    10    14 ar  
    19    10    18 ar  
    20    13    26 1   
    21    13    27 1   
    22    13    28 1   
    23    14    15 ar  
    24    14    29 1   
    25    15    16 ar  
    26    15    30 1   
    27    16    17 ar  
    28    16    20 1   
    29    17    18 ar  
    30    17    19 1   
    31    18    31 1   
    32    19    32 1   
    33    20    21 1   
    34    20    22 1   
@<TRIPOS>SUBSTRUCTURE
     1 20C         1 TEMP              0 ****  ****    0 ROOT
