@<TRIPOS>MOLECULE
20C
   32    34     1     0     0
SMALL
No Charge or Current Charge


@<TRIPOS>ATOM
      1 C1          -4.2930    -0.9980    -0.1870 ca         1 20C      -0.014300
      2 C2          -5.4360    -0.1910     0.0200 ca         1 20C      -0.114000
      3 C3          -5.3110     1.1750     0.3660 ca         1 20C      -0.105000
      4 C4          -4.0380     1.7640     0.5110 ca         1 20C      -0.060000
      5 C5          -2.9150     0.9520     0.3020 ca         1 20C      -0.135600
      6 C6          -3.0340    -0.3880    -0.0360 ca         1 20C      -0.143600
      7 C7          -1.4670     1.2940     0.3870 c          1 20C       0.583600
      8 N8          -0.7730     0.1140     0.0850 n          1 20C      -0.297600
      9 C9          -1.6530    -0.9470    -0.1840 c          1 20C       0.584600
     10 C10          0.6580     0.0040     0.0550 ca         1 20C       0.064600
     11 O11         -1.3510    -2.0890    -0.5010 o          1 20C      -0.478000
     12 O12         -0.9910     2.3810     0.6860 o          1 20C      -0.474000
     13 C13         -4.4360    -2.4670    -0.5590 c3         1 20C      -0.048800
     14 C14          1.3050    -1.0940     0.6490 ca         1 20C      -0.191000
     15 C15          2.7050    -1.2030     0.6220 ca         1 20C      -0.029000
     16 C16          3.4950    -0.2120    -0.0050 ca         1 20C      -0.265600
     17 C17          2.8370     0.8870    -0.5990 ca         1 20C       0.222100
     18 C18          1.4390     0.9930    -0.5680 ca         1 20C      -0.202000
     19 O19          3.5500     1.8630    -1.2150 oh         1 20C      -0.633100
     20 C20          5.0030    -0.3430    -0.0270 c          1 20C       0.725600
     21 O21          5.6480     0.5370    -0.5820 o          1 20C      -0.692500
     22 O22          5.5140    -1.3160     0.5060 o          1 20C      -0.692500
     23 H2          -6.4300    -0.6220    -0.0860 ha         1 20C       0.109000
     24 H3          -6.2030     1.7770     0.5210 ha         1 20C       0.111000
     25 H4          -3.9320     2.8140     0.7770 ha         1 20C       0.134000
     26 H13         -3.9750    -2.6720    -1.5320 hc         1 20C       0.052033
     27 H13A        -3.9520    -3.1090     0.1870 hc         1 20C       0.052033
     28 H13B        -5.4880    -2.7700    -0.6220 hc         1 20C       0.052033
     29 H14          0.7260    -1.8660     1.1480 ha         1 20C       0.099000
     30 H15          3.1720    -2.0660     1.0940 ha         1 20C       0.124000
     31 H18          0.9640     1.8450    -1.0440 ha         1 20C       0.113000
     32 HO19         4.5010     1.5700    -1.1080 ho         1 20C       0.552000
@<TRIPOS>BOND
     1     1     2 ar  
     2     1     6 ar  
     3     1    13 1   
     4     2     3 ar  
     5     2    23 1   
     6     3     4 ar  
     7     3    24 1   
     8     4     5 ar  
     9     4    25 1   
    10     5     6 ar  
    11     5     7 1   
    12     6     9 1   
    13     7     8 1   
    14     7    12 2   
    15     8     9 1   
    16     8    10 1   
    17     9    11 2   
    18    10    14 ar  
    19    10    18 ar  
    20    13    26 1   
    21    13    27 1   
    22    13    28 1   
    23    14    15 ar  
    24    14    29 1   
    25    15    16 ar  
    26    15    30 1   
    27    16    17 ar  
    28    16    20 1   
    29    17    18 ar  
    30    17    19 1   
    31    18    31 1   
    32    19    32 1   
    33    20    21 1   
    34    20    22 1   
@<TRIPOS>SUBSTRUCTURE
     1 20C         1 TEMP              0 ****  ****    0 ROOT
