@<TRIPOS>MOLECULE
20D
   27    29     1     0     0
SMALL
No Charge or Current Charge


@<TRIPOS>ATOM
      1 CAJ         -0.4660     1.6210    -0.0070 cc         1 20D      -0.388200
      2 CAG         -1.9180     1.7680    -0.0090 c          1 20D       0.596900
      3 OAK         -2.4610     2.8640    -0.0080 o          1 20D      -0.541100
      4 CAF         -2.6880     0.4910    -0.0140 ca         1 20D      -0.226600
      5 CAA         -4.1000     0.4810    -0.0170 ca         1 20D      -0.025000
      6 CAB         -4.7930    -0.7430    -0.0210 ca         1 20D      -0.146000
      7 CAC         -4.0840    -1.9570    -0.0220 ca         1 20D      -0.057000
      8 CAD         -2.6790    -1.9440    -0.0200 ca         1 20D      -0.141000
      9 CAE         -1.9850    -0.7230    -0.0150 ca         1 20D       0.151100
     10 OAH         -0.6120    -0.7390    -0.0130 os         1 20D      -0.218200
     11 CAI          0.1630     0.3930    -0.0090 cd         1 20D       0.210900
     12 CAL          1.6260     0.1420    -0.0070 ca         1 20D      -0.091800
     13 CAM          2.1310    -1.1830    -0.0090 ca         1 20D      -0.046000
     14 CAN          3.5170    -1.4250    -0.0070 ca         1 20D      -0.160500
     15 CAO          4.4150    -0.3510    -0.0030 ca         1 20D       0.195000
     16 FAR          5.7460    -0.5860    -0.0010 f          1 20D      -0.171000
     17 CAP          3.9380     0.9650    -0.0010 ca         1 20D      -0.160500
     18 CAQ          2.5530     1.2120    -0.0030 ca         1 20D      -0.046000
     19 H1           0.0750     2.5560    -0.0040 ha         1 20D       0.213000
     20 H2          -4.6600     1.4140    -0.0150 ha         1 20D       0.139000
     21 H3          -5.8810    -0.7500    -0.0230 ha         1 20D       0.123000
     22 H4          -4.6220    -2.9030    -0.0250 ha         1 20D       0.120000
     23 H5          -2.1260    -2.8800    -0.0210 ha         1 20D       0.133000
     24 H6           1.4580    -2.0370    -0.0120 ha         1 20D       0.130000
     25 H7           3.8930    -2.4450    -0.0080 ha         1 20D       0.138500
     26 H8           4.6410     1.7940     0.0020 ha         1 20D       0.138500
     27 H9           2.2170     2.2450    -0.0020 ha         1 20D       0.130000
@<TRIPOS>BOND
     1     1     2 1   
     2     1    11 2   
     3     1    19 1   
     4     2     3 2   
     5     2     4 1   
     6     4     5 ar  
     7     4     9 ar  
     8     5     6 ar  
     9     5    20 1   
    10     6     7 ar  
    11     6    21 1   
    12     7     8 ar  
    13     7    22 1   
    14     8     9 ar  
    15     8    23 1   
    16     9    10 1   
    17    10    11 1   
    18    11    12 1   
    19    12    13 ar  
    20    12    18 ar  
    21    13    14 ar  
    22    13    24 1   
    23    14    15 ar  
    24    14    25 1   
    25    15    16 1   
    26    15    17 ar  
    27    17    18 ar  
    28    17    26 1   
    29    18    27 1   
@<TRIPOS>SUBSTRUCTURE
     1 20D         1 TEMP              0 ****  ****    0 ROOT
