@<TRIPOS>MOLECULE
20D
   27    29     1     0     0
SMALL
abcg2


@<TRIPOS>ATOM
      1 CAJ         -0.4450     1.5840     0.2130 cc         1 20D      -0.388200
      2 CAG         -1.8790     1.7510     0.2280 c          1 20D       0.596900
      3 OAK         -2.4290     2.8350     0.3760 o          1 20D      -0.541100
      4 CAF         -2.6320     0.5000     0.0620 ca         1 20D      -0.226600
      5 CAA         -4.0300     0.4710     0.0750 ca         1 20D      -0.025000
      6 CAB         -4.7060    -0.7200    -0.0770 ca         1 20D      -0.146000
      7 CAC         -3.9920    -1.9100    -0.2450 ca         1 20D      -0.057000
      8 CAD         -2.6120    -1.9090    -0.2600 ca         1 20D      -0.141000
      9 CAE         -1.9440    -0.6980    -0.1040 ca         1 20D       0.151100
     10 OAH         -0.5920    -0.7400    -0.1310 os         1 20D      -0.218200
     11 CAI          0.1300     0.3750     0.0290 cd         1 20D       0.210900
     12 CAL          1.5730     0.1190    -0.0000 ca         1 20D      -0.091800
     13 CAM          2.0830    -1.1450     0.3020 ca         1 20D      -0.046000
     14 CAN          3.4480    -1.3780     0.2970 ca         1 20D      -0.160500
     15 CAO          4.2980    -0.3370    -0.0230 ca         1 20D       0.195000
     16 FAR          5.6170    -0.5560    -0.0320 f          1 20D      -0.171000
     17 CAP          3.8290     0.9250    -0.3380 ca         1 20D      -0.160500
     18 CAQ          2.4630     1.1450    -0.3260 ca         1 20D      -0.046000
     19 H1           0.1790     2.4530     0.3710 ha         1 20D       0.213000
     20 H2          -4.5740     1.3970     0.2080 ha         1 20D       0.139000
     21 H3          -5.7870    -0.7380    -0.0670 ha         1 20D       0.123000
     22 H4          -4.5230    -2.8450    -0.3670 ha         1 20D       0.120000
     23 H5          -2.0510    -2.8250    -0.3920 ha         1 20D       0.133000
     24 H6           1.4230    -1.9620     0.5600 ha         1 20D       0.130000
     25 H7           3.8410    -2.3550     0.5420 ha         1 20D       0.138500
     26 H8           4.5150     1.7190    -0.5980 ha         1 20D       0.138500
     27 H9           2.0950     2.1260    -0.5960 ha         1 20D       0.130000
@<TRIPOS>BOND
     1     1     2 1   
     2     1    11 2   
     3     1    19 1   
     4     2     3 2   
     5     2     4 1   
     6     4     5 ar  
     7     4     9 ar  
     8     5     6 ar  
     9     5    20 1   
    10     6     7 ar  
    11     6    21 1   
    12     7     8 ar  
    13     7    22 1   
    14     8     9 ar  
    15     8    23 1   
    16     9    10 1   
    17    10    11 1   
    18    11    12 1   
    19    12    13 ar  
    20    12    18 ar  
    21    13    14 ar  
    22    13    24 1   
    23    14    15 ar  
    24    14    25 1   
    25    15    16 1   
    26    15    17 ar  
    27    17    18 ar  
    28    17    26 1   
    29    18    27 1   
@<TRIPOS>SUBSTRUCTURE
     1 20D         1 TEMP              0 ****  ****    0 ROOT
