@<TRIPOS>MOLECULE
20E
   78    81     1     0     0
SMALL
No Charge or Current Charge


@<TRIPOS>ATOM
      1 C19          4.2020     0.0720     2.2710 c3         1 20E      -0.090100
      2 C10          4.2630    -0.3030     0.7490 c6         1 20E      -0.025000
      3 C1           5.0510    -1.6530     0.6190 c6         1 20E      -0.066400
      4 C2           5.3540    -2.0640    -0.8490 c6         1 20E       0.131300
      5 O2           6.1640    -3.2530    -0.8610 oh         1 20E      -0.665000
      6 C3           6.0800    -0.9190    -1.6240 c6         1 20E       0.143300
      7 O3           7.4260    -0.7920    -1.1480 oh         1 20E      -0.654000
      8 C4           5.3240     0.4290    -1.4790 c6         1 20E      -0.060400
      9 C5           5.0840     0.8220     0.0170 c6         1 20E      -0.158700
     10 C6           4.3390     2.1640     0.1060 c          1 20E       0.575300
     11 O6           4.9090     3.2040     0.4080 o          1 20E      -0.519100
     12 C7           2.8870     2.1240    -0.1860 ce         1 20E      -0.313200
     13 C8           2.1610     0.9770    -0.1150 c2         1 20E      -0.052400
     14 C9           2.8000    -0.4030     0.1310 c6         1 20E      -0.023500
     15 C11          1.8520    -1.3940     0.8910 c6         1 20E      -0.066400
     16 C12          0.3620    -1.2980     0.4550 c6         1 20E      -0.061400
     17 C13         -0.1710     0.1770     0.5120 c5         1 20E      -0.026000
     18 C18         -0.0510     0.6810     1.9990 c3         1 20E      -0.095100
     19 C14          0.6740     1.0200    -0.5310 c5         1 20E       0.201200
     20 O14          0.6000     0.5390    -1.8780 oh         1 20E      -0.658000
     21 C15         -0.0340     2.3970    -0.4310 c5         1 20E      -0.106400
     22 C16         -1.5500     2.0060    -0.4090 c5         1 20E      -0.062400
     23 C17         -1.6230     0.4550    -0.0900 c5         1 20E      -0.074700
     24 C20         -2.9570    -0.0110     0.6440 c3         1 20E       0.165000
     25 O20         -3.1730     0.7920     1.8150 oh         1 20E      -0.674000
     26 C21         -2.8820    -1.4780     1.1370 c3         1 20E      -0.123100
     27 C22         -4.2550     0.2030    -0.3220 c3         1 20E       0.184300
     28 O22         -4.5360     1.6140    -0.5380 oh         1 20E      -0.661000
     29 C23         -5.6150    -0.4630     0.1170 c3         1 20E      -0.099400
     30 C24         -6.8070    -0.2170    -0.8560 c3         1 20E      -0.057400
     31 C25         -8.1560    -0.9050    -0.4830 c3         1 20E       0.184000
     32 C26         -9.2520    -0.5070    -1.4980 c3         1 20E      -0.121100
     33 C27         -8.0370    -2.4470    -0.4120 c3         1 20E      -0.121100
     34 O25         -8.5750    -0.4380     0.8000 oh         1 20E      -0.660000
     35 H191         3.5340     0.9200     2.4610 hc         1 20E       0.040367
     36 H192         3.8570    -0.7650     2.8880 hc         1 20E       0.040367
     37 H193         5.1930     0.3460     2.6540 hc         1 20E       0.040367
     38 H11          6.0010    -1.5680     1.1660 hc         1 20E       0.060200
     39 H12          4.5040    -2.4640     1.1180 hc         1 20E       0.060200
     40 H2           4.4030    -2.2750    -1.3580 h1         1 20E       0.038700
     41 HO2          5.9990    -3.7050    -1.7190 ho         1 20E       0.445000
     42 H3           6.0990    -1.1860    -2.6910 h1         1 20E       0.028700
     43 HO3          7.6490    -1.6950    -0.8250 ho         1 20E       0.455000
     44 H41          5.9070     1.2190    -1.9720 hc         1 20E       0.057700
     45 H42          4.3790     0.3820    -2.0350 hc         1 20E       0.057700
     46 H5           6.0620     0.9660     0.4950 hc         1 20E       0.094700
     47 H7           2.4450     3.0970    -0.3810 ha         1 20E       0.198000
     48 H9           2.8830    -0.8330    -0.8740 hc         1 20E       0.067700
     49 H111         2.1960    -2.4250     0.7340 hc         1 20E       0.043200
     50 H112         1.8990    -1.2380     1.9740 hc         1 20E       0.043200
     51 H121         0.2510    -1.7040    -0.5600 hc         1 20E       0.051200
     52 H122        -0.2120    -1.9680     1.1010 hc         1 20E       0.051200
     53 H181         0.9890     0.8490     2.3000 hc         1 20E       0.038700
     54 H182        -0.5720     1.6290     2.1720 hc         1 20E       0.038700
     55 H183        -0.4720    -0.0460     2.7020 hc         1 20E       0.038700
     56 HO14         1.2160     1.0940    -2.4000 ho         1 20E       0.444000
     57 H151         0.2450     2.9440     0.4770 hc         1 20E       0.052200
     58 H152         0.2030     3.0550    -1.2750 hc         1 20E       0.052200
     59 H161        -2.0790     2.6130     0.3330 hc         1 20E       0.057200
     60 H162        -2.0200     2.2210    -1.3750 hc         1 20E       0.057200
     61 H17         -1.6850    -0.0820    -1.0430 hc         1 20E       0.070700
     62 HO20        -2.4040     0.6440     2.4020 ho         1 20E       0.450000
     63 H211        -3.8190    -1.8020     1.6020 hc         1 20E       0.044367
     64 H212        -2.6510    -2.1610     0.3100 hc         1 20E       0.044367
     65 H213        -2.1290    -1.5940     1.9200 hc         1 20E       0.044367
     66 H22         -4.0000    -0.2550    -1.2870 h1         1 20E       0.062700
     67 HO22        -4.3020     2.0320     0.3210 ho         1 20E       0.457000
     68 H231        -5.4620    -1.5440     0.1830 hc         1 20E       0.053700
     69 H232        -5.8800    -0.1110     1.1220 hc         1 20E       0.053700
     70 H241        -6.9870     0.8620    -0.9330 hc         1 20E       0.051200
     71 H242        -6.5100    -0.5480    -1.8590 hc         1 20E       0.051200
     72 H261        -8.9860    -0.8460    -2.5070 hc         1 20E       0.039533
     73 H262       -10.2180    -0.9560    -1.2360 hc         1 20E       0.039533
     74 H263        -9.3820     0.5810    -1.5300 hc         1 20E       0.039533
     75 H271        -7.3800    -2.7630     0.4070 hc         1 20E       0.039533
     76 H272        -9.0180    -2.9090    -0.2440 hc         1 20E       0.039533
     77 H273        -7.6330    -2.8470    -1.3490 hc         1 20E       0.039533
     78 HO25        -9.4260    -0.8830     1.0000 ho         1 20E       0.437000
@<TRIPOS>BOND
     1     1     2 1   
     2     1    35 1   
     3     1    36 1   
     4     1    37 1   
     5     2     3 1   
     6     2     9 1   
     7     2    14 1   
     8     3     4 1   
     9     3    38 1   
    10     3    39 1   
    11     4     5 1   
    12     4     6 1   
    13     4    40 1   
    14     5    41 1   
    15     6     7 1   
    16     6     8 1   
    17     6    42 1   
    18     7    43 1   
    19     8     9 1   
    20     8    44 1   
    21     8    45 1   
    22     9    10 1   
    23     9    46 1   
    24    10    11 2   
    25    10    12 1   
    26    12    13 2   
    27    12    47 1   
    28    13    14 1   
    29    13    19 1   
    30    14    15 1   
    31    14    48 1   
    32    15    16 1   
    33    15    49 1   
    34    15    50 1   
    35    16    17 1   
    36    16    51 1   
    37    16    52 1   
    38    17    18 1   
    39    17    19 1   
    40    17    23 1   
    41    18    53 1   
    42    18    54 1   
    43    18    55 1   
    44    19    20 1   
    45    19    21 1   
    46    20    56 1   
    47    21    22 1   
    48    21    57 1   
    49    21    58 1   
    50    22    23 1   
    51    22    59 1   
    52    22    60 1   
    53    23    24 1   
    54    23    61 1   
    55    24    25 1   
    56    24    26 1   
    57    24    27 1   
    58    25    62 1   
    59    26    63 1   
    60    26    64 1   
    61    26    65 1   
    62    27    28 1   
    63    27    29 1   
    64    27    66 1   
    65    28    67 1   
    66    29    30 1   
    67    29    68 1   
    68    29    69 1   
    69    30    31 1   
    70    30    70 1   
    71    30    71 1   
    72    31    32 1   
    73    31    33 1   
    74    31    34 1   
    75    32    72 1   
    76    32    73 1   
    77    32    74 1   
    78    33    75 1   
    79    33    76 1   
    80    33    77 1   
    81    34    78 1   
@<TRIPOS>SUBSTRUCTURE
     1 20E         1 TEMP              0 ****  ****    0 ROOT
