@<TRIPOS>MOLECULE
20E
   78    81     1     0     0
SMALL
abcg2


@<TRIPOS>ATOM
      1 C19          4.0380    -0.1860     2.2690 c3         1 20E      -0.090100
      2 C10          4.1090    -0.3950     0.7520 c6         1 20E      -0.025000
      3 C1           4.8350    -1.7260     0.4960 c6         1 20E      -0.066400
      4 C2           5.1670    -1.9770    -0.9650 c6         1 20E       0.131300
      5 O2           5.8890    -3.1930    -1.0370 oh         1 20E      -0.665000
      6 C3           5.9840    -0.8280    -1.5610 c6         1 20E       0.143300
      7 O3           7.2670    -0.7610    -0.9790 oh         1 20E      -0.654000
      8 C4           5.2790     0.4990    -1.3380 c6         1 20E      -0.060400
      9 C5           4.9650     0.7320     0.1490 c6         1 20E      -0.158700
     10 C6           4.3050     2.0780     0.3000 c          1 20E       0.575300
     11 O6           4.9500     3.0970     0.4760 o          1 20E      -0.519100
     12 C7           2.8550     2.1150     0.1250 ce         1 20E      -0.313200
     13 C8           2.1190     1.0030     0.0050 c2         1 20E      -0.052400
     14 C9           2.6980    -0.3860     0.1080 c6         1 20E      -0.023500
     15 C11          1.7280    -1.3770     0.7770 c6         1 20E      -0.066400
     16 C12          0.2690    -1.2640     0.3370 c6         1 20E      -0.061400
     17 C13         -0.2440     0.1740     0.4580 c5         1 20E      -0.026000
     18 C18         -0.1410     0.6550     1.9120 c3         1 20E      -0.095100
     19 C14          0.6720     1.0570    -0.4220 c5         1 20E       0.201200
     20 O14          0.6440     0.5070    -1.7370 oh         1 20E      -0.658000
     21 C15         -0.0440     2.3950    -0.4330 c5         1 20E      -0.106400
     22 C16         -1.5280     2.0020    -0.5320 c5         1 20E      -0.062400
     23 C17         -1.6350     0.4930    -0.1700 c5         1 20E      -0.074700
     24 C20         -2.9410     0.0930     0.5850 c3         1 20E       0.165000
     25 O20         -3.2830     1.0050     1.6190 oh         1 20E      -0.674000
     26 C21         -2.8370    -1.3200     1.1570 c3         1 20E      -0.123100
     27 C22         -4.1410     0.1600    -0.4020 c3         1 20E       0.184300
     28 O22         -4.3520     1.4790    -0.8570 oh         1 20E      -0.661000
     29 C23         -5.4460    -0.4280     0.1440 c3         1 20E      -0.099400
     30 C24         -6.5850    -0.3280    -0.8650 c3         1 20E      -0.057400
     31 C25         -7.9230    -0.9120    -0.4010 c3         1 20E       0.184000
     32 C26         -8.9670    -0.7080    -1.4990 c3         1 20E      -0.121100
     33 C27         -7.8110    -2.4010    -0.0760 c3         1 20E      -0.121100
     34 O25         -8.2910    -0.1820     0.7630 oh         1 20E      -0.660000
     35 H191         3.4000     0.6530     2.5520 hc         1 20E       0.040367
     36 H192         3.6640    -1.0710     2.7860 hc         1 20E       0.040367
     37 H193         5.0360     0.0140     2.6640 hc         1 20E       0.040367
     38 H11          5.7620    -1.7200     1.0780 hc         1 20E       0.060200
     39 H12          4.2430    -2.5590     0.8830 hc         1 20E       0.060200
     40 H2           4.2380    -2.0580    -1.5460 h1         1 20E       0.038700
     41 HO2          5.9410    -3.4630    -1.9600 ho         1 20E       0.445000
     42 H3           6.0680    -0.9940    -2.6480 h1         1 20E       0.028700
     43 HO3          7.6010    -1.6630    -0.9100 ho         1 20E       0.455000
     44 H41          5.9040     1.3090    -1.7200 hc         1 20E       0.057700
     45 H42          4.3670     0.5160    -1.9410 hc         1 20E       0.057700
     46 H5           5.9100     0.7730     0.6960 hc         1 20E       0.094700
     47 H7           2.4010     3.0970     0.0420 ha         1 20E       0.198000
     48 H9           2.7950    -0.7190    -0.9320 hc         1 20E       0.067700
     49 H111         2.0700    -2.3920     0.5680 hc         1 20E       0.043200
     50 H112         1.7740    -1.2660     1.8610 hc         1 20E       0.043200
     51 H121         0.1510    -1.6110    -0.6920 hc         1 20E       0.051200
     52 H122        -0.3090    -1.9510     0.9530 hc         1 20E       0.051200
     53 H181         0.8930     0.7300     2.2520 hc         1 20E       0.038700
     54 H182        -0.5770     1.6440     2.0670 hc         1 20E       0.038700
     55 H183        -0.6290    -0.0400     2.5980 hc         1 20E       0.038700
     56 HO14         1.0350     1.1540    -2.3330 ho         1 20E       0.444000
     57 H151         0.1580     2.9560     0.4810 hc         1 20E       0.052200
     58 H152         0.2800     3.0330    -1.2600 hc         1 20E       0.052200
     59 H161        -2.1160     2.6210     0.1430 hc         1 20E       0.057200
     60 H162        -1.9110     2.1820    -1.5340 hc         1 20E       0.057200
     61 H17         -1.6670    -0.0800    -1.1000 hc         1 20E       0.070700
     62 HO20        -2.5920     1.0060     2.2860 ho         1 20E       0.450000
     63 H211        -3.7400    -1.5980     1.6960 hc         1 20E       0.044367
     64 H212        -2.6700    -2.0610     0.3730 hc         1 20E       0.044367
     65 H213        -2.0170    -1.4060     1.8670 hc         1 20E       0.044367
     66 H22         -3.8580    -0.4190    -1.2890 h1         1 20E       0.062700
     67 HO22        -4.4070     2.0410    -0.0780 ho         1 20E       0.457000
     68 H231        -5.2860    -1.4780     0.3860 hc         1 20E       0.053700
     69 H232        -5.7220     0.0680     1.0790 hc         1 20E       0.053700
     70 H241        -6.7470     0.7170    -1.1410 hc         1 20E       0.051200
     71 H242        -6.2960    -0.8440    -1.7870 hc         1 20E       0.051200
     72 H261        -8.6800    -1.2220    -2.4170 hc         1 20E       0.039533
     73 H262        -9.9410    -1.1040    -1.1990 hc         1 20E       0.039533
     74 H263        -9.0930     0.3500    -1.7320 hc         1 20E       0.039533
     75 H271        -7.1250    -2.5860     0.7500 hc         1 20E       0.039533
     76 H272        -8.7830    -2.8170     0.2020 hc         1 20E       0.039533
     77 H273        -7.4560    -2.9680    -0.9380 hc         1 20E       0.039533
     78 HO25        -9.1240    -0.5330     1.0900 ho         1 20E       0.437000
@<TRIPOS>BOND
     1     1     2 1   
     2     1    35 1   
     3     1    36 1   
     4     1    37 1   
     5     2     3 1   
     6     2     9 1   
     7     2    14 1   
     8     3     4 1   
     9     3    38 1   
    10     3    39 1   
    11     4     5 1   
    12     4     6 1   
    13     4    40 1   
    14     5    41 1   
    15     6     7 1   
    16     6     8 1   
    17     6    42 1   
    18     7    43 1   
    19     8     9 1   
    20     8    44 1   
    21     8    45 1   
    22     9    10 1   
    23     9    46 1   
    24    10    11 2   
    25    10    12 1   
    26    12    13 2   
    27    12    47 1   
    28    13    14 1   
    29    13    19 1   
    30    14    15 1   
    31    14    48 1   
    32    15    16 1   
    33    15    49 1   
    34    15    50 1   
    35    16    17 1   
    36    16    51 1   
    37    16    52 1   
    38    17    18 1   
    39    17    19 1   
    40    17    23 1   
    41    18    53 1   
    42    18    54 1   
    43    18    55 1   
    44    19    20 1   
    45    19    21 1   
    46    20    56 1   
    47    21    22 1   
    48    21    57 1   
    49    21    58 1   
    50    22    23 1   
    51    22    59 1   
    52    22    60 1   
    53    23    24 1   
    54    23    61 1   
    55    24    25 1   
    56    24    26 1   
    57    24    27 1   
    58    25    62 1   
    59    26    63 1   
    60    26    64 1   
    61    26    65 1   
    62    27    28 1   
    63    27    29 1   
    64    27    66 1   
    65    28    67 1   
    66    29    30 1   
    67    29    68 1   
    68    29    69 1   
    69    30    31 1   
    70    30    70 1   
    71    30    71 1   
    72    31    32 1   
    73    31    33 1   
    74    31    34 1   
    75    32    72 1   
    76    32    73 1   
    77    32    74 1   
    78    33    75 1   
    79    33    76 1   
    80    33    77 1   
    81    34    78 1   
@<TRIPOS>SUBSTRUCTURE
     1 20E         1 TEMP              0 ****  ****    0 ROOT
