@<TRIPOS>MOLECULE
20F
   38    41     1     0     0
SMALL
No Charge or Current Charge


@<TRIPOS>ATOM
      1 O01          4.1160    -3.4680     0.2330 o          1 20F      -0.574000
      2 C02          3.5990    -2.3600     0.1900 c          1 20F       0.511200
      3 C03          4.3510    -1.0760     0.2710 cc         1 20F       0.017900
      4 O04          5.6980    -1.2090     0.3830 oh         1 20F      -0.517100
      5 C05          3.7310     0.1580     0.2180 cd         1 20F      -0.169000
      6 C06          2.2850     0.2510     0.0990 cd         1 20F      -0.061200
      7 C07          1.6600     1.5920    -0.0650 ca         1 20F      -0.059800
      8 C08          2.2050     2.7050     0.6180 ca         1 20F      -0.072000
      9 C09          1.6410     3.9860     0.4770 ca         1 20F      -0.153000
     10 C10          0.5330     4.1740    -0.3590 ca         1 20F       0.176000
     11 C11         -0.0100     3.0900    -1.0600 ca         1 20F      -0.153000
     12 C12          0.5520     1.8090    -0.9190 ca         1 20F      -0.072000
     13 F13         -0.0070     5.4040    -0.4950 f          1 20F      -0.176000
     14 C14          1.6040    -0.9700     0.0090 cc         1 20F       0.078400
     15 C15          0.1410    -1.0160     0.0100 ca         1 20F      -0.052800
     16 C16         -0.5970    -0.3940     1.0350 ca         1 20F      -0.091000
     17 C17         -2.0010    -0.4450     1.0380 ca         1 20F      -0.078000
     18 C18         -2.6980    -1.1310     0.0180 ca         1 20F      -0.128500
     19 C19         -1.9520    -1.7660    -1.0000 ca         1 20F      -0.078000
     20 C20         -0.5470    -1.7130    -1.0010 ca         1 20F      -0.091000
     21 C21         -4.1680    -1.1920     0.0060 cc         1 20F       0.451000
     22 N22         -5.0100    -0.6240     0.9190 na         1 20F      -0.209700
     23 N23         -6.3040    -0.8800     0.5990 nc         1 20F      -0.197800
     24 N24         -6.2330    -1.5920    -0.4930 nd         1 20F      -0.037000
     25 N25         -4.9300    -1.8000    -0.8820 nd         1 20F      -0.383000
     26 N26          2.2510    -2.1900     0.0580 ns         1 20F      -0.345100
     27 H1           5.8830    -2.1780     0.3930 ho         1 20F       0.492000
     28 H2           4.3470     1.0510     0.2410 ha         1 20F       0.209000
     29 H3           3.0510     2.5800     1.2900 ha         1 20F       0.123000
     30 H4           2.0610     4.8300     1.0180 ha         1 20F       0.135500
     31 H5          -0.8590     3.2450    -1.7210 ha         1 20F       0.135500
     32 H6           0.1370     0.9990    -1.5110 ha         1 20F       0.123000
     33 H7          -0.0780     0.1360     1.8310 ha         1 20F       0.130500
     34 H8          -2.5360     0.0530     1.8430 ha         1 20F       0.131000
     35 H9          -2.4570    -2.3050    -1.7990 ha         1 20F       0.131000
     36 H10          0.0070    -2.2040    -1.7980 ha         1 20F       0.130500
     37 H11         -4.7510    -0.0820     1.7330 hn         1 20F       0.388000
     38 H12          1.7070    -3.0430     0.0230 hn         1 20F       0.334500
@<TRIPOS>BOND
     1     1     2 2   
     2     2     3 1   
     3     2    26 1   
     4     3     4 1   
     5     3     5 2   
     6     4    27 1   
     7     5     6 1   
     8     5    28 1   
     9     6     7 1   
    10     6    14 2   
    11     7     8 ar  
    12     7    12 ar  
    13     8     9 ar  
    14     8    29 1   
    15     9    10 ar  
    16     9    30 1   
    17    10    11 ar  
    18    10    13 1   
    19    11    12 ar  
    20    11    31 1   
    21    12    32 1   
    22    14    15 1   
    23    14    26 1   
    24    15    16 ar  
    25    15    20 ar  
    26    16    17 ar  
    27    16    33 1   
    28    17    18 ar  
    29    17    34 1   
    30    18    19 ar  
    31    18    21 1   
    32    19    20 ar  
    33    19    35 1   
    34    20    36 1   
    35    21    22 1   
    36    21    25 2   
    37    22    23 1   
    38    22    37 1   
    39    23    24 2   
    40    24    25 1   
    41    26    38 1   
@<TRIPOS>SUBSTRUCTURE
     1 20F         1 TEMP              0 ****  ****    0 ROOT
