@<TRIPOS>MOLECULE
20G
   47    48     1     0     0
SMALL
No Charge or Current Charge


@<TRIPOS>ATOM
      1 Cl1          8.4450    -2.2820    -0.2860 cl         1 20G      -0.193000
      2 Cl2          6.0880     2.6510    -0.2760 cl         1 20G      -0.161000
      3 C02          6.9890    -1.2960    -0.2610 ca         1 20G       0.087000
      4 C03          7.0910     0.1040    -0.2760 ca         1 20G      -0.062000
      5 C04          5.9280     0.8930    -0.2570 ca         1 20G       0.088000
      6 C06          4.6530     0.2860    -0.2230 ca         1 20G       0.148100
      7 O07          3.5320     1.0960    -0.2050 os         1 20G      -0.290100
      8 C08          2.1890     0.5610    -0.1700 c3         1 20G       0.075600
      9 C09          1.1100     1.6760    -0.1540 c          1 20G       0.609100
     10 N10         -0.2470     1.2930     0.0040 n          1 20G      -0.419800
     11 C11         -1.3020     2.3530    -0.0080 c6         1 20G       0.101500
     12 C12         -2.6810     1.9020     0.5230 c6         1 20G      -0.114400
     13 C13         -3.1500     0.6080    -0.1610 c6         1 20G       0.115700
     14 N14         -4.4630     0.2090     0.3570 ns         1 20G      -0.511900
     15 C15         -5.3600    -0.6130    -0.2850 c          1 20G       0.601100
     16 C16         -6.6500    -0.8990     0.4910 c3         1 20G      -0.159400
     17 C17         -7.8570    -0.1480    -0.1220 c3         1 20G      -0.055400
     18 C18         -9.1760    -0.4120     0.6300 c3         1 20G       0.079600
     19 S19        -10.6200     0.4860    -0.1010 sh         1 20G      -0.446800
     20 O20         -5.1320    -1.1000    -1.3820 o          1 20G      -0.597100
     21 C21         -2.0980    -0.4760     0.1270 c6         1 20G      -0.114400
     22 C22         -0.7020    -0.0750    -0.4020 c6         1 20G       0.101500
     23 O23          1.4160     2.8640    -0.2170 o          1 20G      -0.560100
     24 C24          4.5580    -1.1260    -0.2080 ca         1 20G      -0.192000
     25 C25          5.7260    -1.9100    -0.2270 ca         1 20G      -0.063000
     26 H11         -0.9670     3.2120     0.5910 h1         1 20G       0.058450
     27 H21         -2.0370    -0.6590     1.2090 hc         1 20G       0.057200
     28 H11A        -1.4190     2.7090    -1.0420 h1         1 20G       0.058450
     29 H21A        -2.3990    -1.4280    -0.3310 hc         1 20G       0.057200
     30 H12         -2.6190     1.7540     1.6100 hc         1 20G       0.057200
     31 H22         -0.7140    -0.1210    -1.5010 h1         1 20G       0.058450
     32 H12A        -3.4140     2.7030     0.3570 hc         1 20G       0.057200
     33 H22A         0.0120    -0.8340    -0.0550 h1         1 20G       0.058450
     34 H03          8.0690     0.5770    -0.3020 ha         1 20G       0.146000
     35 H13         -3.2290     0.7730    -1.2470 h1         1 20G       0.079700
     36 HN14        -4.7430     0.5550     1.2670 hn         1 20G       0.310500
     37 H24          3.5960    -1.6290    -0.1820 ha         1 20G       0.119000
     38 H25          5.6540    -2.9960    -0.2160 ha         1 20G       0.131000
     39 H16         -6.8530    -1.9750     0.4490 hc         1 20G       0.056200
     40 H16A        -6.5380    -0.5830     1.5360 hc         1 20G       0.056200
     41 H17         -7.6540     0.9300    -0.1190 hc         1 20G       0.072700
     42 H17A        -7.9790    -0.4480    -1.1700 hc         1 20G       0.072700
     43 H08          2.0050    -0.0660    -1.0510 h1         1 20G       0.053200
     44 H18         -9.3960    -1.4880     0.6160 h1         1 20G       0.054700
     45 H08A         2.0430    -0.0510     0.7290 h1         1 20G       0.053200
     46 H18A        -9.0690    -0.1000     1.6770 h1         1 20G       0.054700
     47 HS19       -11.5430     0.0270     0.7810 hs         1 20G       0.209800
@<TRIPOS>BOND
     1     1     3 1   
     2     2     5 1   
     3     3     4 ar  
     4     3    25 ar  
     5     4     5 ar  
     6     4    34 1   
     7     5     6 ar  
     8     6     7 1   
     9     6    24 ar  
    10     7     8 1   
    11     8     9 1   
    12     8    43 1   
    13     8    45 1   
    14     9    10 1   
    15     9    23 2   
    16    10    11 1   
    17    10    22 1   
    18    11    12 1   
    19    11    26 1   
    20    11    28 1   
    21    12    13 1   
    22    12    30 1   
    23    12    32 1   
    24    13    14 1   
    25    13    21 1   
    26    13    35 1   
    27    14    15 1   
    28    14    36 1   
    29    15    16 1   
    30    15    20 2   
    31    16    17 1   
    32    16    39 1   
    33    16    40 1   
    34    17    18 1   
    35    17    41 1   
    36    17    42 1   
    37    18    19 1   
    38    18    44 1   
    39    18    46 1   
    40    19    47 1   
    41    21    22 1   
    42    21    27 1   
    43    21    29 1   
    44    22    31 1   
    45    22    33 1   
    46    24    25 ar  
    47    24    37 1   
    48    25    38 1   
@<TRIPOS>SUBSTRUCTURE
     1 20G         1 TEMP              0 ****  ****    0 ROOT
