@<TRIPOS>MOLECULE
20G
   47    48     1     0     0
SMALL
bcc


@<TRIPOS>ATOM
      1 CL1          7.5950    -3.0080     0.1720 cl         1 20G      -0.101400
      2 CL2          5.6340     1.8780     1.2590 cl         1 20G      -0.069400
      3 C02          6.2760    -1.8860     0.1520 ca         1 20G      -0.004600
      4 C03          6.4670    -0.6080     0.6560 ca         1 20G      -0.080000
      5 C04          5.4120     0.2840     0.6380 ca         1 20G      -0.003600
      6 C06          4.1600    -0.0730     0.1250 ca         1 20G       0.148100
      7 O07          3.2080     0.8680     0.1560 os         1 20G      -0.266900
      8 C08          1.9460     0.5480    -0.3720 c3         1 20G       0.052400
      9 C09          1.0740     1.7930    -0.2360 c          1 20G       0.676100
     10 N10         -0.1770     1.6910    -0.7200 n          1 20G      -0.486800
     11 C11         -1.1040     2.8080    -0.6390 c6         1 20G       0.101500
     12 C12         -2.3530     2.4250     0.1430 c6         1 20G      -0.114400
     13 C13         -3.0070     1.1860    -0.4560 c6         1 20G       0.115700
     14 N14         -4.1730     0.8130     0.3160 ns         1 20G      -0.578900
     15 C15         -5.2500     0.1980    -0.2060 c          1 20G       0.668100
     16 C16         -6.3420    -0.1140     0.8000 c3         1 20G      -0.159400
     17 C17         -7.5360    -0.8320     0.1910 c3         1 20G      -0.055400
     18 C18         -8.6120    -1.0720     1.2390 c3         1 20G       0.031700
     19 S19        -10.0180    -1.9330     0.4590 sh         1 20G      -0.398900
     20 O20         -5.3480    -0.0720    -1.3940 o          1 20G      -0.597100
     21 C21         -1.9890     0.0510    -0.5530 c6         1 20G      -0.114400
     22 C22         -0.7530     0.5000    -1.3220 c6         1 20G       0.101500
     23 O23          1.5200     2.8030     0.2810 o          1 20G      -0.560100
     24 C24          3.9980    -1.3630    -0.3730 ca         1 20G      -0.210000
     25 C25          5.0510    -2.2670    -0.3610 ca         1 20G      -0.081000
     26 H11         -0.6090     3.6570    -0.1770 h1         1 20G       0.058450
     27 H21         -1.6970    -0.2680     0.4520 hc         1 20G       0.057200
     28 H11A        -1.3820     3.1040    -1.6560 h1         1 20G       0.058450
     29 H21A        -2.4300    -0.8100    -1.0590 hc         1 20G       0.057200
     30 H12         -2.0830     2.2390     1.1880 hc         1 20G       0.057200
     31 H22         -1.0200     0.7270    -2.3590 h1         1 20G       0.058450
     32 H12A        -3.0530     3.2630     0.1310 hc         1 20G       0.057200
     33 H22A        -0.0320    -0.3110    -1.3610 h1         1 20G       0.058450
     34 H03          7.4240    -0.3050     1.0580 ha         1 20G       0.164000
     35 H13         -3.3480     1.4320    -1.4660 h1         1 20G       0.079700
     36 HN14        -4.1360     0.9510     1.3140 hn         1 20G       0.310500
     37 H24          3.0510    -1.6900    -0.7780 ha         1 20G       0.137000
     38 H25          4.9020    -3.2630    -0.7530 ha         1 20G       0.149000
     39 H16         -5.9130    -0.7120     1.6090 hc         1 20G       0.056200
     40 H16A        -6.6620     0.8250     1.2640 hc         1 20G       0.056200
     41 H17         -7.9490    -0.2380    -0.6270 hc         1 20G       0.072700
     42 H17A        -7.2210    -1.7870    -0.2340 hc         1 20G       0.072700
     43 H08          2.0300     0.2570    -1.4250 h1         1 20G       0.053200
     44 H18         -8.2250    -1.6840     2.0550 h1         1 20G       0.054700
     45 H08A         1.4960    -0.2890     0.1740 h1         1 20G       0.053200
     46 H18A        -8.9560    -0.1260     1.6580 h1         1 20G       0.054700
     47 HS19       -10.7710    -2.0830     1.5530 hs         1 20G       0.209800
@<TRIPOS>BOND
     1     1     3 1   
     2     2     5 1   
     3     3     4 ar  
     4     3    25 ar  
     5     4     5 ar  
     6     4    34 1   
     7     5     6 ar  
     8     6     7 1   
     9     6    24 ar  
    10     7     8 1   
    11     8     9 1   
    12     8    43 1   
    13     8    45 1   
    14     9    10 1   
    15     9    23 2   
    16    10    11 1   
    17    10    22 1   
    18    11    12 1   
    19    11    26 1   
    20    11    28 1   
    21    12    13 1   
    22    12    30 1   
    23    12    32 1   
    24    13    14 1   
    25    13    21 1   
    26    13    35 1   
    27    14    15 1   
    28    14    36 1   
    29    15    16 1   
    30    15    20 2   
    31    16    17 1   
    32    16    39 1   
    33    16    40 1   
    34    17    18 1   
    35    17    41 1   
    36    17    42 1   
    37    18    19 1   
    38    18    44 1   
    39    18    46 1   
    40    19    47 1   
    41    21    22 1   
    42    21    27 1   
    43    21    29 1   
    44    22    31 1   
    45    22    33 1   
    46    24    25 ar  
    47    24    37 1   
    48    25    38 1   
@<TRIPOS>SUBSTRUCTURE
     1 20G         1 TEMP              0 ****  ****    0 ROOT
