@<TRIPOS>MOLECULE
20H
   44    45     1     0     0
SMALL
No Charge or Current Charge


@<TRIPOS>ATOM
      1 Cl1         -7.6700    -2.4400    -0.7190 cl         1 20H      -0.194000
      2 Cl2         -4.9790     2.2780    -1.3400 cl         1 20H      -0.160000
      3 C02         -6.2100    -1.4840    -0.4950 ca         1 20H       0.087000
      4 C03         -5.0900    -2.0530     0.1320 ca         1 20H      -0.063000
      5 C04         -3.9190    -1.2930     0.3140 ca         1 20H      -0.192000
      6 C05         -3.8690     0.0480    -0.1360 ca         1 20H       0.150100
      7 O06         -2.7410     0.8320     0.0210 os         1 20H      -0.290100
      8 C07         -1.5360     0.3390     0.6530 c3         1 20H       0.075600
      9 C08         -0.4160     1.4100     0.7030 c          1 20H       0.610100
     10 N09          0.8050     1.0800     1.3470 n          1 20H      -0.416800
     11 C10          1.1690    -0.2940     1.7940 c6         1 20H       0.098500
     12 C11          2.2930    -0.8750     0.9030 c6         1 20H      -0.090900
     13 C12          3.5080     0.0920     0.8460 c6         1 20H      -0.139700
     14 C13          4.6740    -0.4360    -0.0160 c          1 20H       0.598100
     15 N14          5.8420    -0.7170     0.6580 ns         1 20H      -0.508900
     16 C15          7.0740    -1.2080     0.0280 c3         1 20H       0.112000
     17 C16          7.8030    -0.1180    -0.7840 c3         1 20H       0.054600
     18 S17          9.3970    -0.6940    -1.5360 sh         1 20H      -0.449800
     19 O18          4.5670    -0.5980    -1.2230 o          1 20H      -0.591100
     20 C19          3.1090     1.5570     0.5130 c6         1 20H      -0.090900
     21 C20          1.9470     2.0320     1.4180 c6         1 20H       0.098500
     22 O21         -0.5790     2.5270     0.2220 o          1 20H      -0.556100
     23 C22         -5.0020     0.6100    -0.7650 ca         1 20H       0.088000
     24 C24         -6.1680    -0.1550    -0.9440 ca         1 20H      -0.062000
     25 H10          1.5230    -0.2430     2.8340 h1         1 20H       0.055950
     26 H20          1.6400     3.0450     1.1240 h1         1 20H       0.055950
     27 H10A         0.3080    -0.9740     1.7890 h1         1 20H       0.055950
     28 H20A         2.2960     2.0920     2.4590 h1         1 20H       0.055950
     29 H11          2.6030    -1.8560     1.2860 hc         1 20H       0.064450
     30 H11A         1.9020    -1.0410    -0.1110 hc         1 20H       0.064450
     31 H12          3.9000     0.1260     1.8720 hc         1 20H       0.047700
     32 H03         -5.1290    -3.0840     0.4780 ha         1 20H       0.131000
     33 H04         -3.0690    -1.7590     0.8020 ha         1 20H       0.119000
     34 HN14         5.8400    -0.5600     1.6600 hn         1 20H       0.312500
     35 H24         -7.0360     0.2820    -1.4280 ha         1 20H       0.146000
     36 H15          7.7450    -1.5810     0.8140 h1         1 20H       0.070200
     37 H15A         6.8290    -2.0520    -0.6310 h1         1 20H       0.070200
     38 H16          7.1480     0.2350    -1.5910 h1         1 20H       0.066200
     39 H16A         8.0200     0.7350    -0.1270 h1         1 20H       0.066200
     40 H07         -1.7440     0.0300     1.6850 h1         1 20H       0.052700
     41 H07A        -1.1420    -0.5240     0.1020 h1         1 20H       0.052700
     42 H19          3.9720     2.2260     0.6320 hc         1 20H       0.064450
     43 H19A         2.7990     1.6270    -0.5390 hc         1 20H       0.064450
     44 HS17         9.7160     0.4820    -2.1330 hs         1 20H       0.217800
@<TRIPOS>BOND
     1     1     3 1   
     2     2    23 1   
     3     3     4 ar  
     4     3    24 ar  
     5     4     5 ar  
     6     4    32 1   
     7     5     6 ar  
     8     5    33 1   
     9     6     7 1   
    10     6    23 ar  
    11     7     8 1   
    12     8     9 1   
    13     8    40 1   
    14     8    41 1   
    15     9    10 1   
    16     9    22 2   
    17    10    11 1   
    18    10    21 1   
    19    11    12 1   
    20    11    25 1   
    21    11    27 1   
    22    12    13 1   
    23    12    29 1   
    24    12    30 1   
    25    13    14 1   
    26    13    20 1   
    27    13    31 1   
    28    14    15 1   
    29    14    19 2   
    30    15    16 1   
    31    15    34 1   
    32    16    17 1   
    33    16    36 1   
    34    16    37 1   
    35    17    18 1   
    36    17    38 1   
    37    17    39 1   
    38    18    44 1   
    39    20    21 1   
    40    20    42 1   
    41    20    43 1   
    42    21    26 1   
    43    21    28 1   
    44    23    24 ar  
    45    24    35 1   
@<TRIPOS>SUBSTRUCTURE
     1 20H         1 TEMP              0 ****  ****    0 ROOT
