@<TRIPOS>MOLECULE
20H
   44    45     1     0     0
SMALL
bcc


@<TRIPOS>ATOM
      1 CL1         -7.4140    -2.4760    -0.7020 cl         1 20H      -0.102400
      2 CL2         -4.8210     2.2200    -1.0510 cl         1 20H      -0.068400
      3 C02         -5.9840    -1.5330    -0.4490 ca         1 20H      -0.004600
      4 C03         -4.8610    -2.1160     0.1080 ca         1 20H      -0.081000
      5 C04         -3.7180    -1.3540     0.3090 ca         1 20H      -0.210000
      6 C05         -3.6860    -0.0090    -0.0430 ca         1 20H       0.150100
      7 O06         -2.6360     0.8070     0.1090 os         1 20H      -0.266900
      8 C07         -1.4610     0.2840     0.6730 c3         1 20H       0.052400
      9 C08         -0.4440     1.4210     0.7080 c          1 20H       0.677100
     10 N09          0.7530     1.1270     1.2500 n          1 20H      -0.483800
     11 C10          1.1610    -0.1850     1.7220 c6         1 20H       0.098500
     12 C11          2.3050    -0.7320     0.8770 c6         1 20H      -0.090900
     13 C12          3.4750     0.2570     0.8490 c6         1 20H      -0.139700
     14 C13          4.5670    -0.2640    -0.0650 c          1 20H       0.665100
     15 N14          5.6580    -0.7440     0.5550 ns         1 20H      -0.575900
     16 C15          6.7920    -1.2920    -0.1490 c3         1 20H       0.112000
     17 C16          7.7800    -0.2060    -0.5600 c3         1 20H       0.006700
     18 S17          9.1710    -0.9950    -1.4380 sh         1 20H      -0.401900
     19 O18          4.4400    -0.2700    -1.2820 o          1 20H      -0.591100
     20 C19          2.9900     1.6350     0.3990 c6         1 20H      -0.090900
     21 C20          1.8280     2.1060     1.2630 c6         1 20H       0.098500
     22 O21         -0.7340     2.5190     0.2680 o          1 20H      -0.556100
     23 C22         -4.8380     0.5540    -0.6060 ca         1 20H      -0.003600
     24 C24         -5.9820    -0.1940    -0.8100 ca         1 20H      -0.080000
     25 H10          1.4820    -0.0930     2.7640 h1         1 20H       0.055950
     26 H20          1.4510     3.0620     0.9110 h1         1 20H       0.055950
     27 H10A         0.3300    -0.8840     1.7160 h1         1 20H       0.055950
     28 H20A         2.1590     2.2460     2.2970 h1         1 20H       0.055950
     29 H11          2.6240    -1.6900     1.2930 hc         1 20H       0.064450
     30 H11A         1.9490    -0.9180    -0.1400 hc         1 20H       0.064450
     31 H12          3.8640     0.3470     1.8710 hc         1 20H       0.047700
     32 H03         -4.8610    -3.1590     0.3900 ha         1 20H       0.149000
     33 H04         -2.8550    -1.8350     0.7470 ha         1 20H       0.137000
     34 HN14         5.7170    -0.6750     1.5570 hn         1 20H       0.312500
     35 H24         -6.8580     0.2660    -1.2450 ha         1 20H       0.164000
     36 H15          7.2800    -2.0130     0.5070 h1         1 20H       0.070200
     37 H15A         6.4420    -1.8330    -1.0290 h1         1 20H       0.070200
     38 H16          7.2950     0.5160    -1.2160 h1         1 20H       0.066200
     39 H16A         8.1520     0.3160     0.3220 h1         1 20H       0.066200
     40 H07         -1.6470    -0.0940     1.6850 h1         1 20H       0.052700
     41 H07A        -1.0750    -0.5480     0.0710 h1         1 20H       0.052700
     42 H19          3.8000     2.3640     0.4660 hc         1 20H       0.064450
     43 H19A         2.6710     1.5960    -0.6450 hc         1 20H       0.064450
     44 HS17         9.8710     0.1170    -1.6850 hs         1 20H       0.217800
@<TRIPOS>BOND
     1     1     3 1   
     2     2    23 1   
     3     3     4 ar  
     4     3    24 ar  
     5     4     5 ar  
     6     4    32 1   
     7     5     6 ar  
     8     5    33 1   
     9     6     7 1   
    10     6    23 ar  
    11     7     8 1   
    12     8     9 1   
    13     8    40 1   
    14     8    41 1   
    15     9    10 1   
    16     9    22 2   
    17    10    11 1   
    18    10    21 1   
    19    11    12 1   
    20    11    25 1   
    21    11    27 1   
    22    12    13 1   
    23    12    29 1   
    24    12    30 1   
    25    13    14 1   
    26    13    20 1   
    27    13    31 1   
    28    14    15 1   
    29    14    19 2   
    30    15    16 1   
    31    15    34 1   
    32    16    17 1   
    33    16    36 1   
    34    16    37 1   
    35    17    18 1   
    36    17    38 1   
    37    17    39 1   
    38    18    44 1   
    39    20    21 1   
    40    20    42 1   
    41    20    43 1   
    42    21    26 1   
    43    21    28 1   
    44    23    24 ar  
    45    24    35 1   
@<TRIPOS>SUBSTRUCTURE
     1 20H         1 TEMP              0 ****  ****    0 ROOT
