@<TRIPOS>MOLECULE
20J
   21    22     1     0     0
SMALL
abcg2


@<TRIPOS>ATOM
      1 C1           3.8730     1.6810    -0.1860 c3         1 20J      -0.147400
      2 C2           2.5170     1.0680    -0.1250 c2         1 20J       0.693200
      3 N3           1.4900     1.7640     0.1940 ne         1 20J      -0.639100
      4 C4           0.2240     1.2190     0.1370 ca         1 20J       0.244400
      5 C5          -0.8720     2.0880     0.1690 ca         1 20J      -0.095000
      6 C6          -2.1630     1.6170     0.0490 ca         1 20J      -0.045000
      7 C7          -2.3940     0.2530    -0.1110 ca         1 20J       0.092000
      8 C8          -1.3450    -0.6440    -0.1340 ca         1 20J       0.005000
      9 C9          -0.0560    -0.1460    -0.0020 ca         1 20J      -0.327500
     10 S10          1.2720    -1.2690     0.1300 sy         1 20J       1.188600
     11 O11          1.5250    -1.5450     1.5300 o          1 20J      -0.523500
     12 O12          1.1320    -2.3910    -0.7760 o          1 20J      -0.523500
     13 N13          2.4590    -0.2650    -0.4730 nu         1 20J      -0.880300
     14 CL1         -4.0130    -0.3240    -0.2750 cl         1 20J      -0.185000
     15 H1           3.8080     2.7510    -0.0120 hc         1 20J       0.070033
     16 H2           4.5250     1.2330     0.5650 hc         1 20J       0.070033
     17 H3           4.3290     1.5060    -1.1610 hc         1 20J       0.070033
     18 H4          -0.6890     3.1480     0.2770 ha         1 20J       0.138000
     19 H5          -2.9930     2.3100     0.0700 ha         1 20J       0.135000
     20 H6          -1.5250    -1.7050    -0.2490 ha         1 20J       0.146000
     21 H7           3.3140    -0.7320    -0.7590 hn         1 20J       0.514000
@<TRIPOS>BOND
     1     1     2 1   
     2     1    15 1   
     3     1    16 1   
     4     1    17 1   
     5     2     3 2   
     6     2    13 1   
     7     3     4 1   
     8     4     5 ar  
     9     4     9 ar  
    10     5     6 ar  
    11     5    18 1   
    12     6     7 ar  
    13     6    19 1   
    14     7     8 ar  
    15     7    14 1   
    16     8     9 ar  
    17     8    20 1   
    18     9    10 1   
    19    10    11 2   
    20    10    12 2   
    21    10    13 1   
    22    13    21 1   
@<TRIPOS>SUBSTRUCTURE
     1 20J         1 TEMP              0 ****  ****    0 ROOT
