@<TRIPOS>MOLECULE
20J
   21    22     1     0     0
SMALL
No Charge or Current Charge


@<TRIPOS>ATOM
      1 C1           3.9130     1.6640    -0.1340 c3         1 20J      -0.147400
      2 C2           2.5530     1.0260    -0.1790 c2         1 20J       0.693200
      3 N3           1.4880     1.7270     0.0510 ne         1 20J      -0.639100
      4 C4           0.1760     1.2200     0.0340 ca         1 20J       0.244400
      5 C5          -0.9080     2.1140     0.0730 ca         1 20J      -0.095000
      6 C6          -2.2310     1.6340     0.0530 ca         1 20J      -0.045000
      7 C7          -2.4740     0.2520    -0.0070 ca         1 20J       0.092000
      8 C8          -1.3970    -0.6490    -0.0410 ca         1 20J       0.005000
      9 C9          -0.0770    -0.1540    -0.0140 ca         1 20J      -0.327500
     10 S10          1.3090    -1.2410    -0.0560 sy         1 20J       1.188600
     11 O11          1.6830    -1.6260     1.3050 o          1 20J      -0.523500
     12 O12          1.1460    -2.2290    -1.1240 o          1 20J      -0.523500
     13 N13          2.5550    -0.2820    -0.5420 nu         1 20J      -0.880300
     14 Cl1         -4.1280    -0.3500    -0.0360 cl         1 20J      -0.185000
     15 H1           3.8380     2.7500    -0.0030 hc         1 20J       0.070033
     16 H2           4.5020     1.2680     0.7000 hc         1 20J       0.070033
     17 H3           4.4640     1.4810    -1.0630 hc         1 20J       0.070033
     18 H4          -0.7220     3.1840     0.1160 ha         1 20J       0.138000
     19 H5          -3.0650     2.3320     0.0810 ha         1 20J       0.135000
     20 H6          -1.5910    -1.7200    -0.0870 ha         1 20J       0.146000
     21 H7           3.3830    -0.7830    -0.2670 hn         1 20J       0.514000
@<TRIPOS>BOND
     1     1     2 1   
     2     1    15 1   
     3     1    16 1   
     4     1    17 1   
     5     2     3 2   
     6     2    13 1   
     7     3     4 1   
     8     4     5 ar  
     9     4     9 ar  
    10     5     6 ar  
    11     5    18 1   
    12     6     7 ar  
    13     6    19 1   
    14     7     8 ar  
    15     7    14 1   
    16     8     9 ar  
    17     8    20 1   
    18     9    10 1   
    19    10    11 2   
    20    10    12 2   
    21    10    13 1   
    22    13    21 1   
@<TRIPOS>SUBSTRUCTURE
     1 20J         1 TEMP              0 ****  ****    0 ROOT
