@<TRIPOS>MOLECULE
20K
   42    44     1     0     0
SMALL
bcc


@<TRIPOS>ATOM
      1 S            5.6810    -0.8480     0.0320 ss         1 20K      -0.173300
      2 CL          -5.0100     2.2820     0.2300 cl         1 20K      -0.102400
      3 C1           7.9900     0.7120    -0.2260 c3         1 20K      -0.134400
      4 N1           5.7260     1.6850    -0.1210 nc         1 20K      -0.660000
      5 C2           6.5080     0.6510    -0.1200 cd         1 20K       0.455700
      6 N2           0.4850    -1.9560     0.4520 nb         1 20K      -0.759000
      7 C3           4.4080     1.3500    -0.0020 cc         1 20K       0.430600
      8 N3          -0.4500     0.1660     0.1960 nu         1 20K      -0.733300
      9 C4           3.4010     2.4510     0.0120 c3         1 20K      -0.119400
     10 N4          -6.0330    -0.5160     0.5090 nh         1 20K      -0.622000
     11 C5           4.1730    -0.0020     0.0950 cd         1 20K      -0.248900
     12 N5           1.8000    -0.0050     0.1530 nb         1 20K      -0.779000
     13 C6           2.9140    -0.7180     0.2260 ca         1 20K       0.599800
     14 C7           2.8640    -2.1050     0.4200 ca         1 20K      -0.423600
     15 C8           1.6080    -2.6620     0.5210 ca         1 20K       0.480200
     16 C9           0.6370    -0.6490     0.2740 ca         1 20K       0.919900
     17 C10         -1.8110    -0.0990     0.2860 ca         1 20K       0.175600
     18 C11         -2.3860    -1.3560     0.4720 ca         1 20K      -0.138000
     19 C12         -3.7660    -1.4840     0.5310 ca         1 20K      -0.138000
     20 C13         -4.6360    -0.4000     0.4360 ca         1 20K       0.097600
     21 C14         -6.7180    -0.3790    -0.7660 c3         1 20K       0.172100
     22 C15         -6.5370    -1.6370     1.2720 c3         1 20K       0.172100
     23 C16         -4.0310     0.8530     0.2780 ca         1 20K       0.052400
     24 C17         -2.6620     1.0070     0.1910 ca         1 20K      -0.177000
     25 H1           8.4620     0.4050     0.7090 hc         1 20K       0.061700
     26 H1A          8.3600     0.0530    -1.0120 hc         1 20K       0.061700
     27 H1B          8.2980     1.7300    -0.4500 hc         1 20K       0.061700
     28 HN3         -0.2050     1.1350     0.0550 hn         1 20K       0.455800
     29 H4           2.7650     2.4200    -0.8720 hc         1 20K       0.057700
     30 H4A          2.7400     2.3840     0.8750 hc         1 20K       0.057700
     31 H4B          3.9150     3.4100     0.0340 hc         1 20K       0.057700
     32 H7           3.7450    -2.7250     0.4920 ha         1 20K       0.157000
     33 H8           1.4940    -3.7300     0.6670 h4         1 20K       0.024100
     34 H11         -1.7650    -2.2320     0.5560 ha         1 20K       0.170000
     35 H12         -4.1730    -2.4790     0.6600 ha         1 20K       0.136000
     36 H14         -6.5900    -1.2610    -1.4070 h1         1 20K       0.035200
     37 H14A        -7.7860    -0.2410    -0.5920 h1         1 20K       0.035200
     38 H14B        -6.3590     0.4900    -1.3130 h1         1 20K       0.035200
     39 H15         -6.0400    -1.6920     2.2400 h1         1 20K       0.035200
     40 H15A        -7.6030    -1.4890     1.4520 h1         1 20K       0.035200
     41 H15B        -6.4230    -2.6080     0.7700 h1         1 20K       0.035200
     42 H17         -2.2470     2.0000     0.0660 ha         1 20K       0.144000
@<TRIPOS>BOND
     1     1     5 1   
     2     1    11 1   
     3     2    23 1   
     4     3     5 1   
     5     3    25 1   
     6     3    26 1   
     7     3    27 1   
     8     4     5 2   
     9     4     7 1   
    10     6    15 ar  
    11     6    16 ar  
    12     7     9 1   
    13     7    11 2   
    14     8    16 1   
    15     8    17 1   
    16     8    28 1   
    17     9    29 1   
    18     9    30 1   
    19     9    31 1   
    20    10    20 1   
    21    10    21 1   
    22    10    22 1   
    23    11    13 1   
    24    12    13 ar  
    25    12    16 ar  
    26    13    14 ar  
    27    14    15 ar  
    28    14    32 1   
    29    15    33 1   
    30    17    18 ar  
    31    17    24 ar  
    32    18    19 ar  
    33    18    34 1   
    34    19    20 ar  
    35    19    35 1   
    36    20    23 ar  
    37    21    36 1   
    38    21    37 1   
    39    21    38 1   
    40    22    39 1   
    41    22    40 1   
    42    22    41 1   
    43    23    24 ar  
    44    24    42 1   
@<TRIPOS>SUBSTRUCTURE
     1 20K         1 TEMP              0 ****  ****    0 ROOT
