@<TRIPOS>MOLECULE
20L
   29    30     1     0     0
SMALL
abcg2


@<TRIPOS>ATOM
      1 N13          5.2350    -0.1780     0.0460 nz         1 20L      -0.977000
      2 C15          4.2320     0.9250    -0.0170 c3         1 20L       0.169900
      3 C22         -4.4170     1.0600     0.0630 ca         1 20L      -0.122000
      4 C21         -3.1830     1.6910     0.0420 ca         1 20L      -0.071500
      5 C20         -2.0030     0.9550     0.0060 ca         1 20L      -0.155000
      6 C19         -2.0710    -0.4330    -0.0090 ca         1 20L       0.114100
      7 C18         -3.3040    -1.0780     0.0110 ca         1 20L      -0.155000
      8 C17         -4.4690    -0.3290     0.0470 ca         1 20L      -0.071500
      9 C23          2.8390     0.3770    -0.0250 ca         1 20L      -0.207300
     10 C24          2.1780     0.1150     1.1710 ca         1 20L      -0.068500
     11 C25          0.8970    -0.4130     1.1710 ca         1 20L      -0.112000
     12 C26          0.2750    -0.6840    -0.0390 ca         1 20L       0.174100
     13 C27          0.9160    -0.4280    -1.2420 ca         1 20L      -0.112000
     14 C28          2.1980     0.0990    -1.2290 ca         1 20L      -0.068500
     15 O10         -0.9740    -1.2440    -0.0480 os         1 20L      -0.258200
     16 H19          5.1270    -0.7450     0.8870 hn         1 20L       0.509667
     17 H29          5.1610    -0.8050    -0.7540 hn         1 20L       0.509667
     18 H39          6.1880     0.1880     0.0530 hn         1 20L       0.509667
     19 H25          0.3870    -0.6140     2.1040 ha         1 20L       0.157000
     20 H17         -5.4240    -0.8380     0.0620 ha         1 20L       0.124500
     21 H18         -3.3460    -2.1590     0.0010 ha         1 20L       0.124000
     22 H22         -5.3280     1.6430     0.0910 ha         1 20L       0.129000
     23 H24          2.6620     0.3310     2.1160 ha         1 20L       0.121000
     24 H28          2.6960     0.3020    -2.1690 ha         1 20L       0.121000
     25 H27          0.4210    -0.6420    -2.1800 ha         1 20L       0.157000
     26 H20         -1.0540     1.4750    -0.0110 ha         1 20L       0.124000
     27 H51          4.4150     1.5610     0.8460 hx         1 20L       0.105200
     28 H52          4.4530     1.4920    -0.9180 hx         1 20L       0.105200
     29 H21         -3.1240     2.7710     0.0530 ha         1 20L       0.124500
@<TRIPOS>BOND
     1     1     2 1   
     2     1    16 1   
     3     1    17 1   
     4     1    18 1   
     5     2     9 1   
     6     2    27 1   
     7     2    28 1   
     8     3     4 ar  
     9     3     8 ar  
    10     3    22 1   
    11     4     5 ar  
    12     4    29 1   
    13     5     6 ar  
    14     5    26 1   
    15     6     7 ar  
    16     6    15 1   
    17     7     8 ar  
    18     7    21 1   
    19     8    20 1   
    20     9    10 ar  
    21     9    14 ar  
    22    10    11 ar  
    23    10    23 1   
    24    11    12 ar  
    25    11    19 1   
    26    12    13 ar  
    27    12    15 1   
    28    13    14 ar  
    29    13    25 1   
    30    14    24 1   
@<TRIPOS>SUBSTRUCTURE
     1 20L         1 TEMP              0 ****  ****    0 ROOT
