@<TRIPOS>MOLECULE
20L
   29    30     1     0     0
SMALL
No Charge or Current Charge


@<TRIPOS>ATOM
      1 N13          5.1050    -0.3780     0.4910 nz         1 20L      -0.977000
      2 C15          4.3500     0.8440     0.0790 c3         1 20L       0.169900
      3 C22         -4.4220     0.8700     0.7420 ca         1 20L      -0.122000
      4 C21         -3.3500     1.6920     0.3520 ca         1 20L      -0.071500
      5 C20         -2.1960     1.1190    -0.2130 ca         1 20L      -0.155000
      6 C19         -2.1120    -0.2780    -0.3790 ca         1 20L       0.114100
      7 C18         -3.1900    -1.0940    -0.0000 ca         1 20L      -0.155000
      8 C17         -4.3450    -0.5230     0.5640 ca         1 20L      -0.071500
      9 C23          2.9300     0.3970    -0.1840 ca         1 20L      -0.207300
     10 C24          1.9820     0.4020     0.8570 ca         1 20L      -0.068500
     11 C25          0.6620    -0.0170     0.6130 ca         1 20L      -0.112000
     12 C26          0.2830    -0.4340    -0.6780 ca         1 20L       0.174100
     13 C27          1.2300    -0.4510    -1.7130 ca         1 20L      -0.112000
     14 C28          2.5500    -0.0330    -1.4710 ca         1 20L      -0.068500
     15 O10         -1.0000    -0.8620    -0.9410 os         1 20L      -0.258200
     16 H19          4.7140    -0.8180     1.3360 hn         1 20L       0.509667
     17 H29          5.0970    -1.1100    -0.2340 hn         1 20L       0.509667
     18 H39          6.0980    -0.1910     0.6980 hn         1 20L       0.509667
     19 H25         -0.0610    -0.0210     1.4240 ha         1 20L       0.157000
     20 H17         -5.1770    -1.1570     0.8620 ha         1 20L       0.124500
     21 H18         -3.1290    -2.1710    -0.1410 ha         1 20L       0.124000
     22 H22         -5.3150     1.3130     1.1780 ha         1 20L       0.129000
     23 H24          2.2660     0.7270     1.8570 ha         1 20L       0.121000
     24 H28          3.2760    -0.0440    -2.2820 ha         1 20L       0.121000
     25 H27          0.9370    -0.7840    -2.7060 ha         1 20L       0.157000
     26 H20         -1.3750     1.7600    -0.5240 ha         1 20L       0.124000
     27 H51          4.3880     1.5910     0.8800 hx         1 20L       0.105200
     28 H52          4.8030     1.2750    -0.8210 hx         1 20L       0.105200
     29 H21         -3.4140     2.7700     0.4830 ha         1 20L       0.124500
@<TRIPOS>BOND
     1     1     2 1   
     2     1    16 1   
     3     1    17 1   
     4     1    18 1   
     5     2     9 1   
     6     2    27 1   
     7     2    28 1   
     8     3     4 ar  
     9     3     8 ar  
    10     3    22 1   
    11     4     5 ar  
    12     4    29 1   
    13     5     6 ar  
    14     5    26 1   
    15     6     7 ar  
    16     6    15 1   
    17     7     8 ar  
    18     7    21 1   
    19     8    20 1   
    20     9    10 ar  
    21     9    14 ar  
    22    10    11 ar  
    23    10    23 1   
    24    11    12 ar  
    25    11    19 1   
    26    12    13 ar  
    27    12    15 1   
    28    13    14 ar  
    29    13    25 1   
    30    14    24 1   
@<TRIPOS>SUBSTRUCTURE
     1 20L         1 TEMP              0 ****  ****    0 ROOT
