@<TRIPOS>MOLECULE
20M
   62    66     1     0     0
SMALL
abcg2


@<TRIPOS>ATOM
      1 C1           0.2350     0.9470    -0.3350 ca         1 20M      -0.117000
      2 C2          -0.9460     1.5400    -0.7420 ca         1 20M      -0.017000
      3 C3          -1.7630     2.1490     0.2060 ca         1 20M      -0.297500
      4 C4          -1.4050     2.1740     1.5460 ca         1 20M      -0.017000
      5 C5          -0.2160     1.5770     1.9380 ca         1 20M      -0.117000
      6 C6           0.6090     0.9570     1.0080 ca         1 20M      -0.070300
      7 C7           1.8890     0.2970     1.4480 c3         1 20M       0.268100
      8 N8           3.0250     0.8480     0.7430 nu         1 20M      -0.892400
      9 C9           4.0280     0.1140     0.2610 c2         1 20M       0.919100
     10 N10          4.0710    -1.1730     0.4450 ne         1 20M      -0.743100
     11 C11          5.0270    -1.9180    -0.1700 ca         1 20M       0.330400
     12 C12          4.8700    -3.3070    -0.2750 ca         1 20M      -0.184000
     13 C13          5.8260    -4.0530    -0.9270 ca         1 20M       0.398900
     14 N14          6.9280    -3.5470    -1.4920 nb         1 20M      -0.694000
     15 C15          7.1080    -2.2440    -1.3930 ca         1 20M       0.459900
     16 C16          6.2060    -1.4120    -0.7440 ca         1 20M      -0.434500
     17 S17          6.5480     0.2750    -0.5070 sy         1 20M       1.200600
     18 O18          7.1420     0.4700     0.8010 o          1 20M      -0.523000
     19 O19          7.1900     0.8810    -1.6560 o          1 20M      -0.523000
     20 N20          4.9590     0.7990    -0.4930 nu         1 20M      -0.887300
     21 S21         -3.3170     2.8340    -0.2960 sy         1 20M       1.147600
     22 O22         -3.7270     3.8040     0.7070 o          1 20M      -0.530000
     23 O23         -3.2040     3.2510    -1.6840 o          1 20M      -0.530000
     24 N24         -4.4070     1.5940    -0.2460 n3         1 20M      -0.706500
     25 C25         -4.2770     0.5530    -1.2670 c6         1 20M       0.191300
     26 C26         -5.5750    -0.2310    -1.3700 c6         1 20M      -0.074400
     27 C27         -5.9920    -0.8310    -0.0300 c6         1 20M       0.192500
     28 C28         -6.0270     0.2770     1.0180 c6         1 20M      -0.074400
     29 C29         -4.7210     1.0510     1.0760 c6         1 20M       0.191300
     30 N30         -7.2780    -1.4940    -0.1330 n3         1 20M      -0.716600
     31 C31         -7.3050    -2.5990    -1.0810 c5         1 20M       0.158800
     32 C32         -8.6120    -3.3310    -0.7740 c5         1 20M      -0.079400
     33 C33         -8.9250    -2.9620     0.6890 c5         1 20M      -0.079400
     34 C34         -7.7560    -2.0740     1.1140 c5         1 20M       0.158800
     35 H1           0.8710     0.4730    -1.0720 ha         1 20M       0.123500
     36 H2          -1.2210     1.5280    -1.7880 ha         1 20M       0.139500
     37 H3          -2.0280     2.6640     2.2820 ha         1 20M       0.139500
     38 H4           0.0710     1.6030     2.9810 ha         1 20M       0.123500
     39 H5           2.0190     0.4140     2.5260 h1         1 20M       0.079200
     40 H6           1.8520    -0.7720     1.2430 h1         1 20M       0.079200
     41 H7           3.1120     1.8530     0.7210 hn         1 20M       0.504000
     42 H8           3.9940    -3.7800     0.1470 ha         1 20M       0.137000
     43 H9           5.6990    -5.1270    -1.0090 h4         1 20M       0.022100
     44 H10          8.0040    -1.8330    -1.8460 h4         1 20M       0.032100
     45 H11          4.8150     1.7810    -0.7060 hn         1 20M       0.512000
     46 H12         -4.0580     1.0080    -2.2300 h1         1 20M       0.053200
     47 H13         -3.4520    -0.1290    -1.0240 h1         1 20M       0.053200
     48 H14         -6.3710     0.4200    -1.7420 hc         1 20M       0.061200
     49 H15         -5.4200    -1.0110    -2.1180 hc         1 20M       0.061200
     50 H16         -5.2100    -1.5580     0.2710 h1         1 20M       0.012700
     51 H17         -6.8500     0.9640     0.7990 hc         1 20M       0.061200
     52 H18         -6.2020    -0.1310     2.0140 hc         1 20M       0.061200
     53 H19         -3.9130     0.3940     1.4270 h1         1 20M       0.053200
     54 H20         -4.8210     1.8630     1.7930 h1         1 20M       0.053200
     55 H22         -7.2640    -2.2440    -2.1110 h1         1 20M       0.034700
     56 H23         -6.4440    -3.2730    -0.9340 h1         1 20M       0.034700
     57 H24         -9.4090    -2.9950    -1.4370 hc         1 20M       0.047950
     58 H25         -8.5040    -4.4050    -0.9210 hc         1 20M       0.047950
     59 H26         -9.8660    -2.4160     0.7550 hc         1 20M       0.047950
     60 H27         -9.0130    -3.8340     1.3350 hc         1 20M       0.047950
     61 H28         -6.9750    -2.6800     1.6040 h1         1 20M       0.034700
     62 H29         -8.0590    -1.3030     1.8240 h1         1 20M       0.034700
@<TRIPOS>BOND
     1     1     2 ar  
     2     1     6 ar  
     3     1    35 1   
     4     2     3 ar  
     5     2    36 1   
     6     3     4 ar  
     7     3    21 1   
     8     4     5 ar  
     9     4    37 1   
    10     5     6 ar  
    11     5    38 1   
    12     6     7 1   
    13     7     8 1   
    14     7    39 1   
    15     7    40 1   
    16     8     9 1   
    17     8    41 1   
    18     9    10 2   
    19     9    20 1   
    20    10    11 1   
    21    11    12 ar  
    22    11    16 ar  
    23    12    13 ar  
    24    12    42 1   
    25    13    14 ar  
    26    13    43 1   
    27    14    15 ar  
    28    15    16 ar  
    29    15    44 1   
    30    16    17 1   
    31    17    18 2   
    32    17    19 2   
    33    17    20 1   
    34    20    45 1   
    35    21    22 2   
    36    21    23 2   
    37    21    24 1   
    38    24    25 1   
    39    24    29 1   
    40    25    26 1   
    41    25    46 1   
    42    25    47 1   
    43    26    27 1   
    44    26    48 1   
    45    26    49 1   
    46    27    28 1   
    47    27    30 1   
    48    27    50 1   
    49    28    29 1   
    50    28    51 1   
    51    28    52 1   
    52    29    53 1   
    53    29    54 1   
    54    30    31 1   
    55    30    34 1   
    56    31    32 1   
    57    31    55 1   
    58    31    56 1   
    59    32    33 1   
    60    32    57 1   
    61    32    58 1   
    62    33    34 1   
    63    33    59 1   
    64    33    60 1   
    65    34    61 1   
    66    34    62 1   
@<TRIPOS>SUBSTRUCTURE
     1 20M         1 TEMP              0 ****  ****    0 ROOT
