@<TRIPOS>MOLECULE
20M
   62    66     1     0     0
SMALL
No Charge or Current Charge


@<TRIPOS>ATOM
      1 C1          -0.1970     0.5950    -1.3960 ca         1 20M      -0.117000
      2 C2          -1.3330     1.4200    -1.4680 ca         1 20M      -0.017000
      3 C3          -1.8790     1.9760    -0.2920 ca         1 20M      -0.297500
      4 C4          -1.2720     1.7070     0.9520 ca         1 20M      -0.017000
      5 C5          -0.1370     0.8810     1.0170 ca         1 20M      -0.117000
      6 C6           0.4060     0.3170    -0.1530 ca         1 20M      -0.070300
      7 C7           1.6370    -0.5750    -0.0760 c3         1 20M       0.268100
      8 N8           2.8490     0.2510    -0.0380 nu         1 20M      -0.892400
      9 C9           4.0830    -0.2610    -0.0160 c2         1 20M       0.919100
     10 N10          4.3440    -1.5080    -0.1310 ne         1 20M      -0.743100
     11 C11          5.6420    -2.0150    -0.1720 ca         1 20M       0.330400
     12 C12          5.8720    -3.3650    -0.4330 ca         1 20M      -0.184000
     13 C13          7.1950    -3.8240    -0.4710 ca         1 20M       0.398900
     14 N14          8.2610    -3.0160    -0.2660 nb         1 20M      -0.694000
     15 C15          8.0230    -1.7100    -0.0120 ca         1 20M       0.459900
     16 C16          6.7330    -1.2010     0.0410 ca         1 20M      -0.434500
     17 S17          6.4840     0.4750     0.3770 sy         1 20M       1.200600
     18 O18          6.5430     0.7010     1.8200 o          1 20M      -0.523000
     19 O19          7.2510     1.2900    -0.5650 o          1 20M      -0.523000
     20 N20          4.9130     0.7580     0.0100 nu         1 20M      -0.887300
     21 S21         -3.3400     3.0300    -0.3810 sy         1 20M       1.147600
     22 O22         -3.3970     3.8970     0.8020 o          1 20M      -0.530000
     23 O23         -3.4600     3.5980    -1.7290 o          1 20M      -0.530000
     24 N24         -4.6270     1.9180    -0.2170 n3         1 20M      -0.706500
     25 C25         -4.7440     0.9420    -1.3300 c6         1 20M       0.191300
     26 C26         -6.0540     0.1290    -1.2380 c6         1 20M      -0.074400
     27 C27         -6.1680    -0.6130     0.1200 c6         1 20M       0.192500
     28 C28         -5.9890     0.4230     1.2610 c6         1 20M      -0.074400
     29 C29         -4.6810     1.2270     1.0960 c6         1 20M       0.191300
     30 N30         -7.4620    -1.3530     0.2400 n3         1 20M      -0.716600
     31 C31         -7.7230    -2.3850    -0.7920 c5         1 20M       0.158800
     32 C32         -9.0660    -2.9930    -0.3110 c5         1 20M      -0.079400
     33 C33         -9.0260    -2.8120     1.2370 c5         1 20M      -0.079400
     34 C34         -7.6640    -2.1160     1.4950 c5         1 20M       0.158800
     35 H1           0.2140     0.1720    -2.3090 ha         1 20M       0.123500
     36 H2          -1.7840     1.6230    -2.4390 ha         1 20M       0.139500
     37 H3          -1.6750     2.1340     1.8690 ha         1 20M       0.139500
     38 H4           0.3250     0.6810     1.9820 ha         1 20M       0.123500
     39 H5           1.5740    -1.2040     0.8230 h1         1 20M       0.079200
     40 H6           1.6550    -1.2480    -0.9450 h1         1 20M       0.079200
     41 H7           2.8130     1.1110    -0.5710 hn         1 20M       0.504000
     42 H8           5.0480    -4.0480    -0.6060 ha         1 20M       0.137000
     43 H9           7.4110    -4.8720    -0.6740 h4         1 20M       0.022100
     44 H10          8.8950    -1.0780     0.1540 h4         1 20M       0.032100
     45 H11          4.6360     1.3980     0.7300 hn         1 20M       0.512000
     46 H12         -4.7340     1.4560    -2.3020 h1         1 20M       0.053200
     47 H13         -3.8920     0.2460    -1.3240 h1         1 20M       0.053200
     48 H14         -6.9120     0.8010    -1.3710 hc         1 20M       0.061200
     49 H15         -6.0760    -0.5830    -2.0720 hc         1 20M       0.061200
     50 H16         -5.3380    -1.3330     0.1830 h1         1 20M       0.012700
     51 H17         -6.8440     1.1120     1.2780 hc         1 20M       0.061200
     52 H18         -5.9650    -0.0770     2.2380 hc         1 20M       0.061200
     53 H19         -3.8270     0.5430     1.2080 h1         1 20M       0.053200
     54 H20         -4.6250     1.9520     1.9210 h1         1 20M       0.053200
     55 H22         -7.8170    -1.9690    -1.8040 h1         1 20M       0.034700
     56 H23         -6.9270    -3.1430    -0.8060 h1         1 20M       0.034700
     57 H24         -9.9160    -2.4540    -0.7430 hc         1 20M       0.047950
     58 H25         -9.1630    -4.0430    -0.6090 hc         1 20M       0.047950
     59 H26         -9.8570    -2.1820     1.5750 hc         1 20M       0.047950
     60 H27         -9.1010    -3.7640     1.7740 hc         1 20M       0.047950
     61 H28         -6.8630    -2.8550     1.6430 h1         1 20M       0.034700
     62 H29         -7.7090    -1.4770     2.3860 h1         1 20M       0.034700
@<TRIPOS>BOND
     1     1     2 ar  
     2     1     6 ar  
     3     1    35 1   
     4     2     3 ar  
     5     2    36 1   
     6     3     4 ar  
     7     3    21 1   
     8     4     5 ar  
     9     4    37 1   
    10     5     6 ar  
    11     5    38 1   
    12     6     7 1   
    13     7     8 1   
    14     7    39 1   
    15     7    40 1   
    16     8     9 1   
    17     8    41 1   
    18     9    10 2   
    19     9    20 1   
    20    10    11 1   
    21    11    12 ar  
    22    11    16 ar  
    23    12    13 ar  
    24    12    42 1   
    25    13    14 ar  
    26    13    43 1   
    27    14    15 ar  
    28    15    16 ar  
    29    15    44 1   
    30    16    17 1   
    31    17    18 2   
    32    17    19 2   
    33    17    20 1   
    34    20    45 1   
    35    21    22 2   
    36    21    23 2   
    37    21    24 1   
    38    24    25 1   
    39    24    29 1   
    40    25    26 1   
    41    25    46 1   
    42    25    47 1   
    43    26    27 1   
    44    26    48 1   
    45    26    49 1   
    46    27    28 1   
    47    27    30 1   
    48    27    50 1   
    49    28    29 1   
    50    28    51 1   
    51    28    52 1   
    52    29    53 1   
    53    29    54 1   
    54    30    31 1   
    55    30    34 1   
    56    31    32 1   
    57    31    55 1   
    58    31    56 1   
    59    32    33 1   
    60    32    57 1   
    61    32    58 1   
    62    33    34 1   
    63    33    59 1   
    64    33    60 1   
    65    34    61 1   
    66    34    62 1   
@<TRIPOS>SUBSTRUCTURE
     1 20M         1 TEMP              0 ****  ****    0 ROOT
