@<TRIPOS>MOLECULE
20N
   30    31     1     0     0
SMALL
bcc


@<TRIPOS>ATOM
      1 C1           5.9270     0.5070    -0.0670 c3         1 20N      -0.181100
      2 C2           4.6130    -0.1940     0.1720 c          1 20N       0.674100
      3 O3           4.5630    -1.3420     0.5820 o          1 20N      -0.588100
      4 N4           3.5200     0.5550    -0.1150 ns         1 20N      -0.469100
      5 C5           2.1640     0.2240    -0.0230 ca         1 20N       0.045600
      6 C6           1.6690    -1.0050     0.4150 ca         1 20N      -0.140500
      7 C7           0.3020    -1.2200     0.4640 ca         1 20N      -0.141000
      8 C8          -0.6160    -0.2400     0.0870 ca         1 20N       0.048600
      9 C9          -0.1200     0.9900    -0.3490 ca         1 20N      -0.141000
     10 C10          1.2460     1.2040    -0.3980 ca         1 20N      -0.140500
     11 N11         -1.9720    -0.5700     0.1780 ns         1 20N      -0.465100
     12 C12         -3.0610     0.1580    -0.1750 c          1 20N       0.707100
     13 O13         -3.0050     1.2870    -0.6370 o          1 20N      -0.592100
     14 C14         -4.3500    -0.5480     0.0520 cx         1 20N      -0.250700
     15 C15         -5.5370     0.2740     0.4840 cx         1 20N      -0.095400
     16 C16         -5.4850    -0.2660    -0.8970 cx         1 20N      -0.095400
     17 H1           6.4730    -0.0160    -0.8530 hc         1 20N       0.063033
     18 H2           5.8260     1.5510    -0.3560 hc         1 20N       0.063033
     19 H3           6.5320     0.4560     0.8370 hc         1 20N       0.063033
     20 H4           3.7010     1.4890    -0.4480 hn         1 20N       0.315500
     21 H5           2.3310    -1.7990     0.7180 ha         1 20N       0.147500
     22 H6          -0.0550    -2.1840     0.8070 ha         1 20N       0.147000
     23 H7          -0.7820     1.7840    -0.6500 ha         1 20N       0.147000
     24 H8           1.6030     2.1680    -0.7420 ha         1 20N       0.147500
     25 H9          -2.1580    -1.4890     0.5490 hn         1 20N       0.316500
     26 H10         -4.2880    -1.5550     0.4470 hc         1 20N       0.084700
     27 H11         -6.2100    -0.1850     1.1960 hc         1 20N       0.082700
     28 H12         -5.3820     1.3350     0.6250 hc         1 20N       0.082700
     29 H13         -5.2930     0.4240    -1.7080 hc         1 20N       0.082700
     30 H14         -6.1230    -1.1010    -1.1520 hc         1 20N       0.082700
@<TRIPOS>BOND
     1     1     2 1   
     2     1    17 1   
     3     1    18 1   
     4     1    19 1   
     5     2     3 2   
     6     2     4 1   
     7     4     5 1   
     8     4    20 1   
     9     5     6 ar  
    10     5    10 ar  
    11     6     7 ar  
    12     6    21 1   
    13     7     8 ar  
    14     7    22 1   
    15     8     9 ar  
    16     8    11 1   
    17     9    10 ar  
    18     9    23 1   
    19    10    24 1   
    20    11    12 1   
    21    11    25 1   
    22    12    13 2   
    23    12    14 1   
    24    14    15 1   
    25    14    16 1   
    26    14    26 1   
    27    15    16 1   
    28    15    27 1   
    29    15    28 1   
    30    16    29 1   
    31    16    30 1   
@<TRIPOS>SUBSTRUCTURE
     1 20N         1 TEMP              0 ****  ****    0 ROOT
