@<TRIPOS>MOLECULE
20N
   30    31     1     0     0
SMALL
No Charge or Current Charge


@<TRIPOS>ATOM
      1 C1           5.9490     0.5820     0.2250 c3         1 20N      -0.181100
      2 C2           4.6020    -0.0410     0.5820 c          1 20N       0.607100
      3 O3           4.5140    -0.9290     1.4220 o          1 20N      -0.588100
      4 N4           3.5300     0.4910    -0.1250 ns         1 20N      -0.143000
      5 C5           2.1340     0.2130    -0.1080 ca         1 20N      -0.047000
      6 C6           1.5390    -0.7580     0.7250 ca         1 20N      -0.122500
      7 C7           0.1510    -0.9750     0.6850 ca         1 20N      -0.123000
      8 C8          -0.6720    -0.2350    -0.1830 ca         1 20N      -0.044000
      9 C9          -0.0780     0.7370    -1.0160 ca         1 20N      -0.123000
     10 C10          1.3110     0.9540    -0.9750 ca         1 20N      -0.122500
     11 N11         -2.0680    -0.5110    -0.1660 ns         1 20N      -0.139000
     12 C12         -3.1340     0.0030    -0.8900 c          1 20N       0.640100
     13 O13         -3.0470     0.8570    -1.7650 o          1 20N      -0.592100
     14 C14         -4.4660    -0.6080    -0.5120 cx         1 20N      -0.250700
     15 C15         -4.9900    -0.4070     0.8980 cx         1 20N      -0.095400
     16 C16         -5.6500     0.3050    -0.2590 cx         1 20N      -0.095400
     17 H1           6.1080     0.4930    -0.8560 hc         1 20N       0.063033
     18 H2           5.8880     1.6670     0.3620 hc         1 20N       0.063033
     19 H3           6.7800     0.1480     0.7930 hc         1 20N       0.063033
     20 H4           3.7920     1.2180    -0.7780 hn         1 20N       0.149000
     21 H5           2.1310    -1.3550     1.4120 ha         1 20N       0.129500
     22 H6          -0.2870    -1.7290     1.3360 ha         1 20N       0.129000
     23 H7          -0.6710     1.3360    -1.7000 ha         1 20N       0.129000
     24 H8           1.7480     1.7090    -1.6260 ha         1 20N       0.129500
     25 H9          -2.3370    -1.2170     0.5070 hn         1 20N       0.150000
     26 H10         -4.6780    -1.5640    -0.9830 hc         1 20N       0.084700
     27 H11         -5.5310    -1.2280     1.3620 hc         1 20N       0.082700
     28 H12         -4.4030     0.1950     1.5890 hc         1 20N       0.082700
     29 H13         -5.5000     1.3800    -0.3420 hc         1 20N       0.082700
     30 H14         -6.6340    -0.0390    -0.5710 hc         1 20N       0.082700
@<TRIPOS>BOND
     1     1     2 1   
     2     1    17 1   
     3     1    18 1   
     4     1    19 1   
     5     2     3 2   
     6     2     4 1   
     7     4     5 1   
     8     4    20 1   
     9     5     6 ar  
    10     5    10 ar  
    11     6     7 ar  
    12     6    21 1   
    13     7     8 ar  
    14     7    22 1   
    15     8     9 ar  
    16     8    11 1   
    17     9    10 ar  
    18     9    23 1   
    19    10    24 1   
    20    11    12 1   
    21    11    25 1   
    22    12    13 2   
    23    12    14 1   
    24    14    15 1   
    25    14    16 1   
    26    14    26 1   
    27    15    16 1   
    28    15    27 1   
    29    15    28 1   
    30    16    29 1   
    31    16    30 1   
@<TRIPOS>SUBSTRUCTURE
     1 20N         1 TEMP              0 ****  ****    0 ROOT
