@<TRIPOS>MOLECULE
20O
   45    48     1     0     0
SMALL
No Charge or Current Charge


@<TRIPOS>ATOM
      1 C1          -6.2800     0.9570    -2.2260 ca         1 20O      -0.058000
      2 C2          -5.7670    -0.3520    -2.2380 ca         1 20O      -0.129500
      3 C3          -5.0880    -0.8560    -1.1150 ca         1 20O      -0.015500
      4 C4          -4.9230    -0.0490     0.0300 ca         1 20O      -0.260500
      5 C5          -5.4340     1.2670     0.0380 ca         1 20O      -0.015500
      6 C6          -6.1120     1.7640    -1.0890 ca         1 20O      -0.129500
      7 S7          -4.0370    -0.6860     1.4690 sy         1 20O       1.028000
      8 O8          -4.4810     0.0740     2.6460 o          1 20O      -0.529000
      9 O9          -4.1190    -2.1540     1.4360 o          1 20O      -0.529000
     10 C10         -2.3290    -0.2220     1.1250 ca         1 20O      -0.301500
     11 C11         -1.8350     1.0250     1.5540 ca         1 20O       0.017000
     12 C12         -0.5070     1.3910     1.2740 ca         1 20O      -0.178000
     13 C13          0.3430     0.5200     0.5590 ca         1 20O       0.038000
     14 C14         -0.1630    -0.7220     0.1320 ca         1 20O      -0.178000
     15 C15         -1.4890    -1.0950     0.4080 ca         1 20O       0.017000
     16 N16          1.6940     0.8220     0.2400 ns         1 20O      -0.143000
     17 C17          2.4860     1.9330     0.4840 c          1 20O       0.643100
     18 O18          2.1170     2.9500     1.0590 o          1 20O      -0.573100
     19 C19          3.8920     1.7890    -0.0480 cx         1 20O      -0.244700
     20 C20          5.0600     2.1930     0.8310 cx         1 20O      -0.078400
     21 C21          4.7890     0.7280     0.5630 cx         1 20O      -0.039400
     22 C22          5.6990    -0.1220    -0.2900 ca         1 20O      -0.112300
     23 C23          5.8630    -1.4900     0.0040 ca         1 20O      -0.062000
     24 C24          6.7150    -2.2550    -0.8090 ca         1 20O      -0.160000
     25 C25          7.3750    -1.6390    -1.8840 ca         1 20O       0.338900
     26 N26          7.2280    -0.3280    -2.1800 nb         1 20O      -0.664000
     27 C27          6.4050     0.4080    -1.3950 ca         1 20O       0.337900
     28 H1          -6.8050     1.3440    -3.0970 ha         1 20O       0.116000
     29 H2          -5.8950    -0.9760    -3.1200 ha         1 20O       0.118500
     30 H3          -4.6930    -1.8700    -1.1420 ha         1 20O       0.134500
     31 H4          -5.3080     1.9060     0.9110 ha         1 20O       0.134500
     32 H5          -6.5060     2.7780    -1.0800 ha         1 20O       0.118500
     33 H6          -2.4730     1.7150     2.1030 ha         1 20O       0.135500
     34 H7          -0.1620     2.3580     1.6230 ha         1 20O       0.134000
     35 H8           0.4740    -1.4070    -0.4220 ha         1 20O       0.134000
     36 H9          -1.8560    -2.0600     0.0610 ha         1 20O       0.135500
     37 H10          2.1710     0.0820    -0.2580 hn         1 20O       0.156000
     38 H11          3.9930     1.9820    -1.1130 hc         1 20O       0.092700
     39 H12          5.9210     2.6560     0.3550 hc         1 20O       0.088700
     40 H13          4.8470     2.5680     1.8300 hc         1 20O       0.088700
     41 H14          4.3830     0.1700     1.4060 hc         1 20O       0.104700
     42 H15          5.3440    -1.9520     0.8420 ha         1 20O       0.123000
     43 H16          6.8670    -3.3130    -0.6130 ha         1 20O       0.127000
     44 H17          8.0410    -2.2120    -2.5290 h4         1 20O       0.022100
     45 H18          6.3120     1.4580    -1.6680 h4         1 20O       0.015100
@<TRIPOS>BOND
     1     1     2 ar  
     2     1     6 ar  
     3     1    28 1   
     4     2     3 ar  
     5     2    29 1   
     6     3     4 ar  
     7     3    30 1   
     8     4     5 ar  
     9     4     7 1   
    10     5     6 ar  
    11     5    31 1   
    12     6    32 1   
    13     7     8 2   
    14     7     9 2   
    15     7    10 1   
    16    10    11 ar  
    17    10    15 ar  
    18    11    12 ar  
    19    11    33 1   
    20    12    13 ar  
    21    12    34 1   
    22    13    14 ar  
    23    13    16 1   
    24    14    15 ar  
    25    14    35 1   
    26    15    36 1   
    27    16    17 1   
    28    16    37 1   
    29    17    18 2   
    30    17    19 1   
    31    19    20 1   
    32    19    21 1   
    33    19    38 1   
    34    20    21 1   
    35    20    39 1   
    36    20    40 1   
    37    21    22 1   
    38    21    41 1   
    39    22    23 ar  
    40    22    27 ar  
    41    23    24 ar  
    42    23    42 1   
    43    24    25 ar  
    44    24    43 1   
    45    25    26 ar  
    46    25    44 1   
    47    26    27 ar  
    48    27    45 1   
@<TRIPOS>SUBSTRUCTURE
     1 20O         1 TEMP              0 ****  ****    0 ROOT
