@<TRIPOS>MOLECULE
20O
   45    48     1     0     0
SMALL
bcc


@<TRIPOS>ATOM
      1 C1          -6.5820     2.0010    -1.3110 ca         1 20O      -0.076000
      2 C2          -6.1720     0.8480    -1.9680 ca         1 20O      -0.147500
      3 C3          -5.4310    -0.1110    -1.2940 ca         1 20O      -0.033500
      4 C4          -5.1060     0.1060     0.0400 ca         1 20O      -0.260500
      5 C5          -5.5130     1.2510     0.7100 ca         1 20O      -0.033500
      6 C6          -6.2550     2.2010     0.0240 ca         1 20O      -0.147500
      7 S7          -4.1520    -1.1160     0.9030 sy         1 20O       1.169600
      8 O8          -4.3580    -0.9190     2.3350 o          1 20O      -0.599800
      9 O9          -4.4440    -2.4160     0.3050 o          1 20O      -0.599800
     10 C10         -2.4750    -0.7080     0.5280 ca         1 20O      -0.301500
     11 C11         -1.8010     0.2180     1.3100 ca         1 20O      -0.001000
     12 C12         -0.4880     0.5500     1.0280 ca         1 20O      -0.196000
     13 C13          0.1650    -0.0550    -0.0520 ca         1 20O       0.130600
     14 C14         -0.5300    -0.9890    -0.8310 ca         1 20O      -0.196000
     15 C15         -1.8390    -1.3170    -0.5460 ca         1 20O      -0.001000
     16 N16          1.4780     0.2020    -0.4190 ns         1 20O      -0.469100
     17 C17          2.3960     1.0260     0.1640 c          1 20O       0.710100
     18 O18          2.1730     1.7030     1.1510 o          1 20O      -0.573100
     19 C19          3.7170     1.0110    -0.5150 cx         1 20O      -0.244700
     20 C20          4.5770     2.2370    -0.4490 cx         1 20O      -0.078400
     21 C21          4.9550     1.0520     0.3680 cx         1 20O      -0.039400
     22 C22          6.1110     0.1850     0.0460 ca         1 20O      -0.177600
     23 C23          6.6790    -0.6160     1.0320 ca         1 20O      -0.080000
     24 C24          7.7500    -1.4350     0.7160 ca         1 20O      -0.243300
     25 C25          8.2250    -1.4300    -0.5860 ca         1 20O       0.404200
     26 N26          7.6990    -0.6720    -1.5410 nb         1 20O      -0.664000
     27 C27          6.6740     0.1100    -1.2280 ca         1 20O       0.403200
     28 H1          -7.1620     2.7450    -1.8410 ha         1 20O       0.134000
     29 H2          -6.4330     0.6890    -3.0050 ha         1 20O       0.136500
     30 H3          -5.1190    -1.0120    -1.8050 ha         1 20O       0.152500
     31 H4          -5.2630     1.4080     1.7500 ha         1 20O       0.152500
     32 H5          -6.5820     3.0960     0.5350 ha         1 20O       0.136500
     33 H6          -2.2860     0.6910     2.1540 ha         1 20O       0.153500
     34 H7           0.0160     1.2690     1.6510 ha         1 20O       0.152000
     35 H8          -0.0340    -1.4680    -1.6650 ha         1 20O       0.152000
     36 H9          -2.3460    -2.0490    -1.1600 ha         1 20O       0.153500
     37 H10          1.7980    -0.3100    -1.2280 hn         1 20O       0.322500
     38 H11          3.7960     0.4060    -1.4110 hc         1 20O       0.092700
     39 H12          5.1570     2.4770    -1.3310 hc         1 20O       0.088700
     40 H13          4.1830     3.0950     0.0780 hc         1 20O       0.088700
     41 H14          4.7470     1.1330     1.4290 hc         1 20O       0.104700
     42 H15          6.2840    -0.5970     2.0410 ha         1 20O       0.141000
     43 H16          8.2090    -2.0680     1.4640 ha         1 20O       0.145000
     44 H17          9.0620    -2.0580    -0.8690 h4         1 20O       0.022100
     45 H18          6.2800     0.7140    -2.0390 h4         1 20O       0.015100
@<TRIPOS>BOND
     1     1     2 ar  
     2     1     6 ar  
     3     1    28 1   
     4     2     3 ar  
     5     2    29 1   
     6     3     4 ar  
     7     3    30 1   
     8     4     5 ar  
     9     4     7 1   
    10     5     6 ar  
    11     5    31 1   
    12     6    32 1   
    13     7     8 2   
    14     7     9 2   
    15     7    10 1   
    16    10    11 ar  
    17    10    15 ar  
    18    11    12 ar  
    19    11    33 1   
    20    12    13 ar  
    21    12    34 1   
    22    13    14 ar  
    23    13    16 1   
    24    14    15 ar  
    25    14    35 1   
    26    15    36 1   
    27    16    17 1   
    28    16    37 1   
    29    17    18 2   
    30    17    19 1   
    31    19    20 1   
    32    19    21 1   
    33    19    38 1   
    34    20    21 1   
    35    20    39 1   
    36    20    40 1   
    37    21    22 1   
    38    21    41 1   
    39    22    23 ar  
    40    22    27 ar  
    41    23    24 ar  
    42    23    42 1   
    43    24    25 ar  
    44    24    43 1   
    45    25    26 ar  
    46    25    44 1   
    47    26    27 ar  
    48    27    45 1   
@<TRIPOS>SUBSTRUCTURE
     1 20O         1 TEMP              0 ****  ****    0 ROOT
