@<TRIPOS>MOLECULE
20P
   32    34     1     0     0
SMALL
No Charge or Current Charge


@<TRIPOS>ATOM
      1 C1          -5.0230    -0.2860    -1.6160 ca         1 20P      -0.106000
      2 C2          -4.2330     0.8720    -1.6840 ca         1 20P      -0.108500
      3 C3          -3.1430     1.0330    -0.8110 ca         1 20P      -0.103000
      4 C4          -2.8310     0.0400     0.1400 ca         1 20P      -0.058300
      5 C5          -3.6320    -1.1220     0.1990 ca         1 20P      -0.103000
      6 C6          -4.7220    -1.2830    -0.6750 ca         1 20P      -0.108500
      7 C7          -1.6530     0.2390     1.0640 cx         1 20P      -0.041400
      8 C9          -1.6380    -0.2680     2.4900 cx         1 20P      -0.082400
      9 C10         -0.7390    -0.9100     1.4520 cx         1 20P      -0.245700
     10 C12          0.7490    -0.6540     1.5020 c          1 20P       0.645100
     11 O13          1.3780    -0.7200     2.5510 o          1 20P      -0.576100
     12 N14          1.2960    -0.3570     0.2640 ns         1 20P      -0.144000
     13 C15          2.6210    -0.0510    -0.1440 ca         1 20P       0.021000
     14 C16          3.7230     0.0240     0.7310 ca         1 20P      -0.209500
     15 C17          4.9920     0.3370     0.2180 ca         1 20P       0.356900
     16 N18          5.2190     0.5750    -1.0930 nb         1 20P      -0.682000
     17 C19          4.1650     0.5050    -1.9350 ca         1 20P       0.356900
     18 C20          2.8640     0.1980    -1.5040 ca         1 20P      -0.209500
     19 H1          -5.8660    -0.4120    -2.2920 ha         1 20P       0.115000
     20 H2          -4.4640     1.6460    -2.4130 ha         1 20P       0.114000
     21 H3          -2.5400     1.9360    -0.8760 ha         1 20P       0.111000
     22 H4          -3.4170    -1.9080     0.9190 ha         1 20P       0.111000
     23 H5          -5.3320    -2.1820    -0.6210 ha         1 20P       0.114000
     24 H6          -1.1790     1.2090     0.9140 hc         1 20P       0.102700
     25 H7          -1.1820     0.3700     3.2440 hc         1 20P       0.086200
     26 H8          -2.4950    -0.8340     2.8450 hc         1 20P       0.086200
     27 H9          -1.0130    -1.9060     1.1150 hc         1 20P       0.090700
     28 H10          0.6230    -0.3550    -0.4910 hn         1 20P       0.153000
     29 H11          3.6280    -0.1510     1.7960 ha         1 20P       0.136500
     30 H12          5.8560     0.4000     0.8780 h4         1 20P       0.018100
     31 H13          4.3690     0.7000    -2.9880 h4         1 20P       0.018100
     32 H14          2.0580     0.1570    -2.2310 ha         1 20P       0.136500
@<TRIPOS>BOND
     1     1     2 ar  
     2     1     6 ar  
     3     1    19 1   
     4     2     3 ar  
     5     2    20 1   
     6     3     4 ar  
     7     3    21 1   
     8     4     5 ar  
     9     4     7 1   
    10     5     6 ar  
    11     5    22 1   
    12     6    23 1   
    13     7     8 1   
    14     7     9 1   
    15     7    24 1   
    16     8     9 1   
    17     8    25 1   
    18     8    26 1   
    19     9    10 1   
    20     9    27 1   
    21    10    11 2   
    22    10    12 1   
    23    12    13 1   
    24    12    28 1   
    25    13    14 ar  
    26    13    18 ar  
    27    14    15 ar  
    28    14    29 1   
    29    15    16 ar  
    30    15    30 1   
    31    16    17 ar  
    32    17    18 ar  
    33    17    31 1   
    34    18    32 1   
@<TRIPOS>SUBSTRUCTURE
     1 20P         1 TEMP              0 ****  ****    0 ROOT
