@<TRIPOS>MOLECULE
20Q
   50    53     1     0     0
SMALL
No Charge or Current Charge


@<TRIPOS>ATOM
      1 C9           0.4050     1.0680     1.0970 ca         1 20Q      -0.014000
      2 C2           0.2300    -1.2720     1.2680 c          1 20Q       0.570000
      3 C3          -0.2780    -0.8460    -0.1710 c5         1 20Q      -0.069700
      4 C8          -0.1090     0.6810    -0.1220 ca         1 20Q      -0.144300
      5 N1           0.5800    -0.0760     1.8570 ns         1 20Q      -0.141000
      6 C7           0.6670     2.4030     1.4200 ca         1 20Q      -0.140000
      7 C4          -0.4030     1.6420    -1.1040 ca         1 20Q      -0.043000
      8 C5          -0.1490     2.9990    -0.8110 ca         1 20Q      -0.131000
      9 C6           0.3840     3.3760     0.4430 ca         1 20Q       0.157000
     10 C13          4.3610    -1.1900    -0.3060 ca         1 20Q       0.119000
     11 Cl1          5.5130    -2.0070     0.7420 cl         1 20Q      -0.205000
     12 C12          3.0330    -1.6430    -0.3720 ca         1 20Q      -0.098000
     13 C11          2.1000    -0.9910    -1.2030 ca         1 20Q      -0.082300
     14 C10          0.6500    -1.4700    -1.2620 c3         1 20Q      -0.010100
     15 C31         -1.7940    -1.1890    -0.4370 c6         1 20Q      -0.059700
     16 C16          2.5200     0.1100    -1.9770 ca         1 20Q      -0.097000
     17 C15          3.8490     0.5630    -1.9100 ca         1 20Q      -0.102000
     18 C14          4.7710    -0.0870    -1.0710 ca         1 20Q      -0.100000
     19 C32         -2.7330    -0.5410     0.6290 c6         1 20Q       0.088000
     20 N33         -4.1620    -0.8310     0.3370 n          1 20Q      -0.408800
     21 C34         -4.4610    -2.2860     0.3220 c6         1 20Q       0.099000
     22 C35         -3.6010    -2.9940    -0.7490 c6         1 20Q      -0.100400
     23 C36         -2.0930    -2.7210    -0.5210 c6         1 20Q      -0.077400
     24 O2           0.3240    -2.3790     1.7830 o          1 20Q      -0.527000
     25 Cl6          0.6930     5.0730     0.7860 cl         1 20Q      -0.199000
     26 C33         -5.0550     0.1700    -0.1180 c          1 20Q       0.604100
     27 O33         -4.6880     1.3310    -0.2490 o          1 20Q      -0.604100
     28 C37         -6.5090    -0.2020    -0.4150 c3         1 20Q      -0.176100
     29 H1           0.9530    -0.0370     2.7970 hn         1 20Q       0.177000
     30 H2           1.0740     2.6820     2.3880 ha         1 20Q       0.138000
     31 H3          -0.8110     1.3490    -2.0690 ha         1 20Q       0.123000
     32 H4          -0.3640     3.7610    -1.5560 ha         1 20Q       0.135000
     33 H6           0.6440    -2.5640    -1.1790 hc         1 20Q       0.061700
     34 H7           0.2410    -1.2510    -2.2560 hc         1 20Q       0.061700
     35 H8          -2.0650    -0.7540    -1.4100 hc         1 20Q       0.059700
     36 H9           1.8140     0.6220    -2.6280 ha         1 20Q       0.117000
     37 H10          4.1630     1.4170    -2.5060 ha         1 20Q       0.119000
     38 H11          5.7990     0.2610    -1.0170 ha         1 20Q       0.130000
     39 H12         -2.4920    -0.9360     1.6260 h1         1 20Q       0.069200
     40 H13         -2.5670     0.5440     0.6710 h1         1 20Q       0.069200
     41 H14         -4.2280    -2.7070     1.3110 h1         1 20Q       0.052700
     42 H15         -5.5220    -2.4910     0.1320 h1         1 20Q       0.052700
     43 H16         -3.7950    -4.0750    -0.7270 hc         1 20Q       0.048200
     44 H17         -3.8960    -2.6410    -1.7470 hc         1 20Q       0.048200
     45 H18         -1.5310    -3.1850    -1.3420 hc         1 20Q       0.055200
     46 H19         -1.7740    -3.2250     0.4020 hc         1 20Q       0.055200
     47 H20         -6.9320    -0.7310     0.4470 hc         1 20Q       0.059700
     48 H21         -7.1160     0.6670    -0.6900 hc         1 20Q       0.059700
     49 H22         -6.5300    -0.9620    -1.2040 hc         1 20Q       0.059700
     50 H5           2.7330    -2.5010     0.2250 ha         1 20Q       0.139000
@<TRIPOS>BOND
     1     1     4 ar  
     2     1     5 1   
     3     1     6 ar  
     4     2     3 1   
     5     2     5 1   
     6     2    24 2   
     7     3     4 1   
     8     3    14 1   
     9     3    15 1   
    10     4     7 ar  
    11     5    29 1   
    12     6     9 ar  
    13     6    30 1   
    14     7     8 ar  
    15     7    31 1   
    16     8     9 ar  
    17     8    32 1   
    18     9    25 1   
    19    10    11 1   
    20    10    12 ar  
    21    10    18 ar  
    22    12    13 ar  
    23    12    50 1   
    24    13    14 1   
    25    13    16 ar  
    26    14    33 1   
    27    14    34 1   
    28    15    19 1   
    29    15    23 1   
    30    15    35 1   
    31    16    17 ar  
    32    16    36 1   
    33    17    18 ar  
    34    17    37 1   
    35    18    38 1   
    36    19    20 1   
    37    19    39 1   
    38    19    40 1   
    39    20    21 1   
    40    20    26 1   
    41    21    22 1   
    42    21    41 1   
    43    21    42 1   
    44    22    23 1   
    45    22    43 1   
    46    22    44 1   
    47    23    45 1   
    48    23    46 1   
    49    26    27 2   
    50    26    28 1   
    51    28    47 1   
    52    28    48 1   
    53    28    49 1   
@<TRIPOS>SUBSTRUCTURE
     1 20Q         1 TEMP              0 ****  ****    0 ROOT
