@<TRIPOS>MOLECULE
20Q
   50    53     1     0     0
SMALL
bcc


@<TRIPOS>ATOM
      1 C9           0.3960     1.1240     0.9990 ca         1 20Q       0.078600
      2 C2           0.1920    -1.1400     1.1790 c          1 20Q       0.712500
      3 C3          -0.3280    -0.7640    -0.2180 c5         1 20Q      -0.069700
      4 C8          -0.1700     0.7320    -0.2090 ca         1 20Q      -0.144300
      5 N1           0.5900     0.0070     1.7950 ns         1 20Q      -0.467100
      6 C7           0.6840     2.4440     1.2870 ca         1 20Q      -0.158000
      7 C4          -0.4750     1.6770    -1.1630 ca         1 20Q      -0.061000
      8 C5          -0.2000     3.0200    -0.9090 ca         1 20Q      -0.149000
      9 C6           0.3740     3.3750     0.3010 ca         1 20Q       0.065400
     10 C13          4.2370    -1.3100    -0.2690 ca         1 20Q       0.027400
     11 CL1          5.3250    -2.2400     0.7140 cl         1 20Q      -0.113400
     12 C12          2.9200    -1.7240    -0.3900 ca         1 20Q      -0.116000
     13 C11          2.0320    -0.9900    -1.1720 ca         1 20Q      -0.082300
     14 C10          0.5920    -1.4130    -1.2820 c3         1 20Q      -0.010100
     15 C31         -1.8070    -1.1670    -0.4360 c6         1 20Q      -0.059700
     16 C16          2.5010     0.1430    -1.8330 ca         1 20Q      -0.115000
     17 C15          3.8210     0.5440    -1.7040 ca         1 20Q      -0.120000
     18 C14          4.7050    -0.1770    -0.9140 ca         1 20Q      -0.118000
     19 C32         -2.7040    -0.5910     0.6660 c6         1 20Q       0.088000
     20 N33         -4.0970    -0.8840     0.3950 n          1 20Q      -0.475800
     21 C34         -4.3780    -2.3080     0.3320 c6         1 20Q       0.099000
     22 C35         -3.5470    -2.9540    -0.7680 c6         1 20Q      -0.100400
     23 C36         -2.0600    -2.6710    -0.5730 c6         1 20Q      -0.077400
     24 O2           0.2630    -2.2530     1.6560 o          1 20Q      -0.602500
     25 CL6          0.7180     5.0470     0.6110 cl         1 20Q      -0.107400
     26 C33         -4.9450     0.0940     0.0030 c          1 20Q       0.671100
     27 O33         -4.6020     1.2690    -0.0500 o          1 20Q      -0.604100
     28 C37         -6.3560    -0.3140    -0.3560 c3         1 20Q      -0.176100
     29 H1           0.9950     0.0260     2.7200 hn         1 20Q       0.343500
     30 H2           1.1260     2.7440     2.2270 ha         1 20Q       0.156000
     31 H3          -0.9150     1.3910    -2.1100 ha         1 20Q       0.141000
     32 H4          -0.4290     3.7750    -1.6490 ha         1 20Q       0.153000
     33 H6           0.5230    -2.4970    -1.1950 hc         1 20Q       0.061700
     34 H7           0.2000    -1.1460    -2.2670 hc         1 20Q       0.061700
     35 H8          -2.1060    -0.6920    -1.3790 hc         1 20Q       0.059700
     36 H9           1.8280     0.7140    -2.4600 ha         1 20Q       0.135000
     37 H10          4.1710     1.4270    -2.2230 ha         1 20Q       0.137000
     38 H11          5.7360     0.1320    -0.8120 ha         1 20Q       0.148000
     39 H12         -2.4460    -1.0400     1.6320 h1         1 20Q       0.069200
     40 H13         -2.5770     0.4850     0.7570 h1         1 20Q       0.069200
     41 H14         -4.1190    -2.7500     1.2990 h1         1 20Q       0.052700
     42 H15         -5.4380    -2.4860     0.1760 h1         1 20Q       0.052700
     43 H16         -3.7250    -4.0320    -0.7720 hc         1 20Q       0.048200
     44 H17         -3.8770    -2.5710    -1.7390 hc         1 20Q       0.048200
     45 H18         -1.5040    -3.0780    -1.4190 hc         1 20Q       0.055200
     46 H19         -1.7060    -3.1920     0.3200 hc         1 20Q       0.055200
     47 H20         -6.8490    -0.8510     0.4540 hc         1 20Q       0.059700
     48 H21         -6.9350     0.5790    -0.5790 hc         1 20Q       0.059700
     49 H22         -6.3760    -0.9590    -1.2360 hc         1 20Q       0.059700
     50 H5           2.5880    -2.6210     0.1180 ha         1 20Q       0.157000
@<TRIPOS>BOND
     1     1     4 ar  
     2     1     5 1   
     3     1     6 ar  
     4     2     3 1   
     5     2     5 1   
     6     2    24 2   
     7     3     4 1   
     8     3    14 1   
     9     3    15 1   
    10     4     7 ar  
    11     5    29 1   
    12     6     9 ar  
    13     6    30 1   
    14     7     8 ar  
    15     7    31 1   
    16     8     9 ar  
    17     8    32 1   
    18     9    25 1   
    19    10    11 1   
    20    10    12 ar  
    21    10    18 ar  
    22    12    13 ar  
    23    12    50 1   
    24    13    14 1   
    25    13    16 ar  
    26    14    33 1   
    27    14    34 1   
    28    15    19 1   
    29    15    23 1   
    30    15    35 1   
    31    16    17 ar  
    32    16    36 1   
    33    17    18 ar  
    34    17    37 1   
    35    18    38 1   
    36    19    20 1   
    37    19    39 1   
    38    19    40 1   
    39    20    21 1   
    40    20    26 1   
    41    21    22 1   
    42    21    41 1   
    43    21    42 1   
    44    22    23 1   
    45    22    43 1   
    46    22    44 1   
    47    23    45 1   
    48    23    46 1   
    49    26    27 2   
    50    26    28 1   
    51    28    47 1   
    52    28    48 1   
    53    28    49 1   
@<TRIPOS>SUBSTRUCTURE
     1 20Q         1 TEMP              0 ****  ****    0 ROOT
