@<TRIPOS>MOLECULE
20R
   44    47     1     0     0
SMALL
bcc


@<TRIPOS>ATOM
      1 C1          -6.6070     2.3690     0.8100 ca         1 20R      -0.077000
      2 C2          -5.6750     2.9750    -0.0220 ca         1 20R      -0.148000
      3 C3          -4.8020     2.2010    -0.7720 ca         1 20R      -0.034000
      4 C4          -4.8770     0.8180    -0.6710 ca         1 20R      -0.260500
      5 C5          -5.8060     0.1980     0.1530 ca         1 20R      -0.034000
      6 C6          -6.6730     0.9840     0.8970 ca         1 20R      -0.148000
      7 S7          -3.7570    -0.1820    -1.6170 sy         1 20R       1.162600
      8 O8          -4.3660    -1.4970    -1.7930 o          1 20R      -0.597300
      9 O9          -3.3470     0.5840    -2.7900 o          1 20R      -0.597300
     10 C10         -2.3510    -0.3630    -0.5570 ca         1 20R      -0.262500
     11 C11         -1.3210     0.5660    -0.6250 ca         1 20R      -0.030500
     12 C12         -0.2330     0.4310     0.2210 ca         1 20R      -0.135000
     13 C13         -0.1610    -0.6240     1.1260 ca         1 20R      -0.037300
     14 C14         -1.2000    -1.5480     1.1690 ca         1 20R      -0.135000
     15 C15         -2.2990    -1.4250     0.3350 ca         1 20R      -0.030500
     16 C16          0.9930    -0.7520     2.0880 c3         1 20R       0.147300
     17 N17          2.2520    -0.3120     1.5420 ns         1 20R      -0.576900
     18 C18          2.8730    -1.0120     0.5740 c          1 20R       0.686700
     19 O19          2.4050    -2.0450     0.1190 o          1 20R      -0.591100
     20 C20          4.1690    -0.4650     0.0830 ca         1 20R      -0.313900
     21 C21          5.0690    -1.3270    -0.4960 ca         1 20R       0.043000
     22 C22          6.2750    -0.7760    -0.9430 ca         1 20R      -0.277300
     23 C23          7.4410    -1.2380    -1.5480 cc         1 20R      -0.113100
     24 N24          8.2000    -0.1570    -1.7040 na         1 20R       0.073800
     25 N25          7.6770     0.9850    -1.2730 nc         1 20R      -0.255400
     26 C27          6.4890     0.6240    -0.7990 ca         1 20R       0.300300
     27 N28          5.5920     1.4720    -0.2590 nb         1 20R      -0.628000
     28 C29          4.4860     0.9250     0.1610 ca         1 20R       0.448200
     29 H1          -7.2870     2.9780     1.3900 ha         1 20R       0.134000
     30 H2          -5.6280     4.0530    -0.0940 ha         1 20R       0.137000
     31 H3          -4.0820     2.6770    -1.4240 ha         1 20R       0.153000
     32 H4          -5.8640    -0.8800     0.2190 ha         1 20R       0.153000
     33 H5          -7.4040     0.5120     1.5400 ha         1 20R       0.137000
     34 H6          -1.3540     1.3890    -1.3260 ha         1 20R       0.153000
     35 H7           0.5690     1.1550     0.1650 ha         1 20R       0.137000
     36 H8          -1.1530    -2.3820     1.8590 ha         1 20R       0.137000
     37 H9          -3.0930    -2.1580     0.3820 ha         1 20R       0.153000
     38 H10          0.7920    -0.1360     2.9650 h1         1 20R       0.058700
     39 H11          1.0630    -1.7840     2.4400 h1         1 20R       0.058700
     40 H12          2.7270     0.4420     2.0080 hn         1 20R       0.321500
     41 H13          4.8560    -2.3840    -0.5890 ha         1 20R       0.161000
     42 H14          7.7630    -2.2180    -1.8590 h4         1 20R       0.186000
     43 H15          9.1210    -0.1440    -2.1170 hn         1 20R       0.327700
     44 H16          3.7530     1.6120     0.5730 h4         1 20R       0.015100
@<TRIPOS>BOND
     1     1     2 ar  
     2     1     6 ar  
     3     1    29 1   
     4     2     3 ar  
     5     2    30 1   
     6     3     4 ar  
     7     3    31 1   
     8     4     5 ar  
     9     4     7 1   
    10     5     6 ar  
    11     5    32 1   
    12     6    33 1   
    13     7     8 2   
    14     7     9 2   
    15     7    10 1   
    16    10    11 ar  
    17    10    15 ar  
    18    11    12 ar  
    19    11    34 1   
    20    12    13 ar  
    21    12    35 1   
    22    13    14 ar  
    23    13    16 1   
    24    14    15 ar  
    25    14    36 1   
    26    15    37 1   
    27    16    17 1   
    28    16    38 1   
    29    16    39 1   
    30    17    18 1   
    31    17    40 1   
    32    18    19 2   
    33    18    20 1   
    34    20    21 ar  
    35    20    28 ar  
    36    21    22 ar  
    37    21    41 1   
    38    22    23 2   
    39    22    26 ar  
    40    23    24 1   
    41    23    42 1   
    42    24    25 1   
    43    24    43 1   
    44    25    26 2   
    45    26    27 ar  
    46    27    28 ar  
    47    28    44 1   
@<TRIPOS>SUBSTRUCTURE
     1 20R         1 TEMP              0 ****  ****    0 ROOT
