@<TRIPOS>MOLECULE
20R
   44    47     1     0     0
SMALL
No Charge or Current Charge


@<TRIPOS>ATOM
      1 C1          -7.2320     0.8980     0.9630 ca         1 20R      -0.059000
      2 C2          -6.6020     2.0980     0.5930 ca         1 20R      -0.130000
      3 C3          -5.4910     2.0780    -0.2680 ca         1 20R      -0.016000
      4 C4          -5.0070     0.8500    -0.7670 ca         1 20R      -0.260500
      5 C5          -5.6380    -0.3550    -0.3890 ca         1 20R      -0.016000
      6 C6          -6.7480    -0.3270     0.4730 ca         1 20R      -0.130000
      7 S7          -3.5700     0.8170    -1.8600 sy         1 20R       1.021000
      8 O8          -3.6290    -0.4250    -2.6440 o          1 20R      -0.526500
      9 O9          -3.4750     2.1280    -2.5180 o          1 20R      -0.526500
     10 C10         -2.1900     0.6770    -0.7040 ca         1 20R      -0.262500
     11 C11         -1.5800     1.8360    -0.1830 ca         1 20R      -0.012500
     12 C12         -0.5150     1.7230     0.7270 ca         1 20R      -0.117000
     13 C13         -0.0510     0.4560     1.1290 ca         1 20R      -0.037300
     14 C14         -0.6630    -0.6990     0.6090 ca         1 20R      -0.117000
     15 C15         -1.7290    -0.5940    -0.3010 ca         1 20R      -0.012500
     16 C16          1.1060     0.3380     2.1110 c3         1 20R       0.147300
     17 N17          2.4000     0.3230     1.4240 ns         1 20R      -0.509900
     18 C18          3.0540    -0.8170     1.0140 c          1 20R       0.619700
     19 O19          2.5930    -1.9280     1.2290 o          1 20R      -0.591100
     20 C20          4.3550    -0.6340     0.2930 ca         1 20R      -0.248600
     21 C21          5.0820    -1.7560    -0.1520 ca         1 20R       0.061000
     22 C22          6.2850    -1.4970    -0.8160 ca         1 20R      -0.212000
     23 C23          7.2320    -2.3970    -1.3750 cc         1 20R      -0.163100
     24 N24          8.2330    -1.5960    -1.9080 na         1 20R       0.023500
     25 N25          7.9760    -0.2320    -1.7190 nc         1 20R      -0.255400
     26 C27          6.7550    -0.2210    -1.0360 ca         1 20R       0.235000
     27 N28          6.0660     0.8550    -0.6150 nb         1 20R      -0.628000
     28 C29          4.8920     0.6470     0.0350 ca         1 20R       0.382900
     29 H1          -8.0910     0.9170     1.6310 ha         1 20R       0.116000
     30 H2          -6.9740     3.0460     0.9750 ha         1 20R       0.119000
     31 H3          -5.0120     3.0160    -0.5430 ha         1 20R       0.135000
     32 H4          -5.2720    -1.3120    -0.7570 ha         1 20R       0.135000
     33 H5          -7.2330    -1.2560     0.7620 ha         1 20R       0.119000
     34 H6          -1.9270     2.8260    -0.4770 ha         1 20R       0.135000
     35 H7          -0.0500     2.6240     1.1200 ha         1 20R       0.119000
     36 H8          -0.3120    -1.6840     0.9100 ha         1 20R       0.119000
     37 H9          -2.1920    -1.5010    -0.6880 ha         1 20R       0.135000
     38 H10          1.0870     1.1900     2.8040 h1         1 20R       0.058700
     39 H11          0.9940    -0.5740     2.7130 h1         1 20R       0.058700
     40 H12          2.8340     1.2120     1.2120 hn         1 20R       0.321500
     41 H13          4.7340    -2.7750     0.0090 ha         1 20R       0.143000
     42 H14          7.2800    -3.4810    -1.4380 h4         1 20R       0.236000
     43 H15          9.0740    -1.9080    -2.3890 hn         1 20R       0.378000
     44 H16          4.3770     1.5530     0.3530 h4         1 20R       0.015100
@<TRIPOS>BOND
     1     1     2 ar  
     2     1     6 ar  
     3     1    29 1   
     4     2     3 ar  
     5     2    30 1   
     6     3     4 ar  
     7     3    31 1   
     8     4     5 ar  
     9     4     7 1   
    10     5     6 ar  
    11     5    32 1   
    12     6    33 1   
    13     7     8 2   
    14     7     9 2   
    15     7    10 1   
    16    10    11 ar  
    17    10    15 ar  
    18    11    12 ar  
    19    11    34 1   
    20    12    13 ar  
    21    12    35 1   
    22    13    14 ar  
    23    13    16 1   
    24    14    15 ar  
    25    14    36 1   
    26    15    37 1   
    27    16    17 1   
    28    16    38 1   
    29    16    39 1   
    30    17    18 1   
    31    17    40 1   
    32    18    19 2   
    33    18    20 1   
    34    20    21 ar  
    35    20    28 ar  
    36    21    22 ar  
    37    21    41 1   
    38    22    23 2   
    39    22    26 ar  
    40    23    24 1   
    41    23    42 1   
    42    24    25 1   
    43    24    43 1   
    44    25    26 2   
    45    26    27 ar  
    46    27    28 ar  
    47    28    44 1   
@<TRIPOS>SUBSTRUCTURE
     1 20R         1 TEMP              0 ****  ****    0 ROOT
