@<TRIPOS>MOLECULE
20U
   69    73     1     0     0
SMALL
bcc


@<TRIPOS>ATOM
      1 N1           4.0260     0.9100    -0.0670 ns         1 20U      -0.466100
      2 C9           3.6750     0.9040     1.2710 ca         1 20U       0.073600
      3 C7           4.3090     1.5350     2.3230 ca         1 20U      -0.166000
      4 C6           3.7370     1.3720     3.5800 ca         1 20U       0.065400
      5 CL1          4.4920     2.1470     4.9370 cl         1 20U      -0.109400
      6 C2           3.1520     0.2010    -0.8340 c          1 20U       0.716500
      7 O2           3.2030     0.1070    -2.0400 o          1 20U      -0.595500
      8 C3           2.1150    -0.4290     0.1060 c5         1 20U      -0.071700
      9 C11          2.1330    -1.9880     0.1720 c5         1 20U       0.200500
     10 C21          2.4100    -2.7120    -1.1500 c3         1 20U      -0.106400
     11 C22          2.7050    -4.2260    -1.0710 c3         1 20U      -0.046000
     12 C25          3.9770    -4.4860    -0.2610 c3         1 20U      -0.088100
     13 C24          1.5540    -5.0370    -0.4710 c3         1 20U      -0.088100
     14 C23          2.9340    -4.7010    -2.5090 c3         1 20U      -0.088100
     15 N12          0.8140    -2.1980     0.7510 n7         1 20U      -0.806200
     16 C14          0.6230    -0.0860    -0.2420 c5         1 20U       0.009600
     17 C31          0.3860     0.5840    -1.5730 ca         1 20U      -0.105300
     18 C36         -0.0430    -0.0550    -2.7310 ca         1 20U      -0.096000
     19 C35         -0.2430     0.6450    -3.9120 ca         1 20U      -0.133000
     20 C34         -0.0100     2.0090    -3.9730 ca         1 20U      -0.088000
     21 C32          0.6220     1.9480    -1.6660 ca         1 20U       0.149900
     22 F1           1.0780     2.5970    -0.5880 f          1 20U      -0.124900
     23 C33          0.4320     2.6620    -2.8340 ca         1 20U      -0.014600
     24 CL2          0.7550     4.3540    -2.8500 cl         1 20U      -0.073400
     25 C13         -0.1220    -1.4240    -0.0140 c5         1 20U       0.097500
     26 C41         -1.4110    -1.1690     0.7600 c          1 20U       0.674100
     27 N42         -2.4710    -0.9300    -0.0550 ns         1 20U      -0.474100
     28 C43         -3.7770    -0.5640     0.2660 ca         1 20U       0.097600
     29 C48         -4.6530    -0.3740    -0.8060 ca         1 20U      -0.182000
     30 C44         -4.2500    -0.3700     1.5660 ca         1 20U      -0.182000
     31 C45         -5.5690     0.0020     1.7650 ca         1 20U      -0.059500
     32 C46         -6.4520     0.1720     0.7040 ca         1 20U      -0.182600
     33 C51         -7.8600     0.5710     1.0010 c          1 20U       0.687700
     34 O51         -8.1610     1.0740     2.0760 o          1 20U      -0.604100
     35 N51         -8.7600     0.3520     0.0290 nt         1 20U      -0.671000
     36 C47         -5.9680    -0.0150    -0.5900 ca         1 20U      -0.059500
     37 O41         -1.4550    -1.1400     1.9720 o          1 20U      -0.547100
     38 C8           2.5260     0.1350     1.4410 ca         1 20U      -0.144300
     39 C4           1.9790    -0.0050     2.6990 ca         1 20U      -0.045000
     40 C5           2.5910     0.6210     3.7850 ca         1 20U      -0.156000
     41 H1           4.8020     1.4240    -0.4550 hn         1 20U       0.343500
     42 H2           5.2010     2.1300     2.1810 ha         1 20U       0.154000
     43 H3           2.8890    -2.2900     0.9010 h1         1 20U       0.084700
     44 H4           1.5830    -2.5550    -1.8510 hc         1 20U       0.056200
     45 H5           3.2820    -2.2610    -1.6270 hc         1 20U       0.056200
     46 H6           3.8660    -4.1960     0.7850 hc         1 20U       0.035367
     47 H7           4.2290    -5.5480    -0.2750 hc         1 20U       0.035367
     48 H8           4.8300    -3.9390    -0.6710 hc         1 20U       0.035367
     49 H9           0.5950    -4.7730    -0.9240 hc         1 20U       0.035367
     50 H10          1.7110    -6.1040    -0.6430 hc         1 20U       0.035367
     51 H11          1.4740    -4.9090     0.6110 hc         1 20U       0.035367
     52 H12          3.7460    -4.1450    -2.9830 hc         1 20U       0.035367
     53 H13          3.1990    -5.7600    -2.5330 hc         1 20U       0.035367
     54 H14          2.0390    -4.5670    -3.1200 hc         1 20U       0.035367
     55 H15          0.5510    -3.1710     0.8150 hn         1 20U       0.384800
     56 H17          0.2890     0.6150     0.5250 hc         1 20U       0.094700
     57 H18         -0.2220    -1.1220    -2.7360 ha         1 20U       0.130000
     58 H19         -0.5820     0.1220    -4.7960 ha         1 20U       0.140000
     59 H20         -0.1650     2.5600    -4.8900 ha         1 20U       0.152000
     60 H21         -0.3790    -1.8970    -0.9710 h1         1 20U       0.033700
     61 H22         -2.3030    -1.0560    -1.0420 hn         1 20U       0.316500
     62 H23         -4.3010    -0.5050    -1.8220 ha         1 20U       0.149500
     63 H24         -3.6080    -0.5050     2.4200 ha         1 20U       0.149500
     64 H25         -5.9150     0.1520     2.7790 ha         1 20U       0.142500
     65 H26         -8.5530    -0.1940    -0.7880 hn         1 20U       0.312000
     66 H27         -9.7280     0.5760     0.1900 hn         1 20U       0.312000
     67 H28         -6.6000     0.1370    -1.4550 ha         1 20U       0.142500
     68 H29          1.0830    -0.5930     2.8430 ha         1 20U       0.174000
     69 H30          2.1730     0.5200     4.7770 ha         1 20U       0.154000
@<TRIPOS>BOND
     1     1     2 1   
     2     1     6 1   
     3     1    41 1   
     4     2     3 ar  
     5     2    38 ar  
     6     3     4 ar  
     7     3    42 1   
     8     4     5 1   
     9     4    40 ar  
    10     6     7 2   
    11     6     8 1   
    12     8     9 1   
    13     8    16 1   
    14     8    38 1   
    15     9    10 1   
    16     9    15 1   
    17     9    43 1   
    18    10    11 1   
    19    10    44 1   
    20    10    45 1   
    21    11    12 1   
    22    11    13 1   
    23    11    14 1   
    24    12    46 1   
    25    12    47 1   
    26    12    48 1   
    27    13    49 1   
    28    13    50 1   
    29    13    51 1   
    30    14    52 1   
    31    14    53 1   
    32    14    54 1   
    33    15    25 1   
    34    15    55 1   
    35    16    17 1   
    36    16    25 1   
    37    16    56 1   
    38    17    18 ar  
    39    17    21 ar  
    40    18    19 ar  
    41    18    57 1   
    42    19    20 ar  
    43    19    58 1   
    44    20    23 ar  
    45    20    59 1   
    46    21    22 1   
    47    21    23 ar  
    48    23    24 1   
    49    25    26 1   
    50    25    60 1   
    51    26    27 1   
    52    26    37 2   
    53    27    28 1   
    54    27    61 1   
    55    28    29 ar  
    56    28    30 ar  
    57    29    36 ar  
    58    29    62 1   
    59    30    31 ar  
    60    30    63 1   
    61    31    32 ar  
    62    31    64 1   
    63    32    33 1   
    64    32    36 ar  
    65    33    34 2   
    66    33    35 1   
    67    35    65 1   
    68    35    66 1   
    69    36    67 1   
    70    38    39 ar  
    71    39    40 ar  
    72    39    68 1   
    73    40    69 1   
@<TRIPOS>SUBSTRUCTURE
     1 20U         1 TEMP              0 ****  ****    0 ROOT
