@<TRIPOS>MOLECULE
20U
   69    73     1     0     0
SMALL
No Charge or Current Charge


@<TRIPOS>ATOM
      1 N1           4.0150     0.9160    -0.5980 ns         1 20U      -0.140000
      2 C9           4.0290     0.9900     0.7880 ca         1 20U      -0.019000
      3 C7           4.8930     1.6930     1.6330 ca         1 20U      -0.148000
      4 C6           4.6890     1.5730     3.0210 ca         1 20U       0.157000
      5 Cl1          5.7430     2.4320     4.1350 cl         1 20U      -0.201000
      6 C2           3.0550     0.1140    -1.1760 c          1 20U       0.574000
      7 O2           2.9410    -0.1040    -2.3760 o          1 20U      -0.520000
      8 C3           2.2470    -0.4250     0.0750 c5         1 20U      -0.071700
      9 C11          2.2560    -1.9880     0.2740 c5         1 20U       0.200500
     10 C21          2.3860    -2.8560    -1.0210 c3         1 20U      -0.106400
     11 C22          2.4820    -4.4170    -0.8930 c3         1 20U      -0.046000
     12 C25          3.6790    -4.8210     0.0080 c3         1 20U      -0.088100
     13 C24          1.1790    -5.0520    -0.3320 c3         1 20U      -0.088100
     14 C23          2.7200    -4.9960    -2.3150 c3         1 20U      -0.088100
     15 N12          0.9680    -2.2110     0.9770 n7         1 20U      -0.861400
     16 C14          0.7350     0.0250     0.1960 c5         1 20U       0.009600
     17 C31          0.2770     0.8560    -1.0270 ca         1 20U      -0.105300
     18 C36         -0.0210     0.2790    -2.2880 ca         1 20U      -0.078000
     19 C35         -0.4580     1.0720    -3.3630 ca         1 20U      -0.115000
     20 C34         -0.6010     2.4580    -3.2080 ca         1 20U      -0.070000
     21 C32          0.1380     2.2610    -0.8960 ca         1 20U       0.185000
     22 F1           0.4310     2.8620     0.2820 f          1 20U      -0.160000
     23 C33         -0.2990     3.0540    -1.9750 ca         1 20U       0.077000
     24 Cl2         -0.4710     4.8000    -1.7980 cl         1 20U      -0.165000
     25 C13         -0.0300    -1.3350     0.2790 c5         1 20U       0.097500
     26 C41         -1.3960    -1.1000     1.0300 c          1 20U       0.607100
     27 N42         -2.3800    -0.8990     0.0690 ns         1 20U      -0.148000
     28 C43         -3.7740    -0.6440     0.1660 ca         1 20U       0.005000
     29 C48         -4.4720    -0.3840    -1.0250 ca         1 20U      -0.164000
     30 C44         -4.4840    -0.6400     1.3830 ca         1 20U      -0.164000
     31 C45         -5.8650    -0.3770     1.4020 ca         1 20U      -0.041500
     32 C46         -6.5700    -0.1130     0.2070 ca         1 20U      -0.182600
     33 C51         -8.0550     0.1650     0.2630 c          1 20U       0.620700
     34 O51         -8.6850     0.1740     1.3080 o          1 20U      -0.604100
     35 N51         -8.7060     0.4150    -0.8940 nt         1 20U      -0.604000
     36 C47         -5.8530    -0.1210    -1.0120 ca         1 20U      -0.041500
     37 O41         -1.5810    -1.1160     2.2440 o          1 20U      -0.547100
     38 C8           3.0030     0.2010     1.2600 ca         1 20U      -0.144300
     39 C4           2.7910     0.0640     2.6440 ca         1 20U      -0.027000
     40 C5           3.6450     0.7630     3.5240 ca         1 20U      -0.138000
     41 H1           4.7070     1.3970    -1.1580 hn         1 20U       0.177000
     42 H2           5.6970     2.3080     1.2360 ha         1 20U       0.136000
     43 H3           3.0970    -2.2720     0.9230 h1         1 20U       0.084700
     44 H4           1.5750    -2.6110    -1.7170 hc         1 20U       0.056200
     45 H5           3.3040    -2.5420    -1.5310 hc         1 20U       0.056200
     46 H6           3.5250    -4.5000     1.0450 hc         1 20U       0.035367
     47 H7           3.8100    -5.9100     0.0180 hc         1 20U       0.035367
     48 H8           4.6120    -4.3720    -0.3530 hc         1 20U       0.035367
     49 H9           0.2940    -4.6600    -0.8500 hc         1 20U       0.035367
     50 H10          1.1900    -6.1410    -0.4660 hc         1 20U       0.035367
     51 H11          1.0680    -4.8710     0.7420 hc         1 20U       0.035367
     52 H12          3.6420    -4.5970    -2.7550 hc         1 20U       0.035367
     53 H13          2.8110    -6.0890    -2.2870 hc         1 20U       0.035367
     54 H14          1.8890    -4.7450    -2.9850 hc         1 20U       0.035367
     55 H15          0.6990    -3.2000     0.9250 hn         1 20U       0.440000
     56 H17          0.5710     0.5720     1.1320 hc         1 20U       0.094700
     57 H18          0.1070    -0.7840    -2.4670 ha         1 20U       0.112000
     58 H19         -0.6770     0.6100    -4.3230 ha         1 20U       0.122000
     59 H20         -0.9370     3.0700    -4.0420 ha         1 20U       0.134000
     60 H21         -0.2490    -1.7750    -0.7000 h1         1 20U       0.033700
     61 H22         -2.0390    -0.9210    -0.8830 hn         1 20U       0.150000
     62 H23         -3.9420    -0.3820    -1.9750 ha         1 20U       0.131500
     63 H24         -3.9900    -0.8410     2.3280 ha         1 20U       0.131500
     64 H25         -6.3880    -0.3810     2.3560 ha         1 20U       0.124500
     65 H26         -8.2070     0.4140    -1.7690 hn         1 20U       0.312000
     66 H27         -9.6970     0.6020    -0.8680 hn         1 20U       0.312000
     67 H28         -6.3490     0.0760    -1.9590 ha         1 20U       0.124500
     68 H29          1.9880    -0.5630     3.0270 ha         1 20U       0.156000
     69 H30          3.5010     0.6760     4.5980 ha         1 20U       0.136000
@<TRIPOS>BOND
     1     1     2 1   
     2     1     6 1   
     3     1    41 1   
     4     2     3 ar  
     5     2    38 ar  
     6     3     4 ar  
     7     3    42 1   
     8     4     5 1   
     9     4    40 ar  
    10     6     7 2   
    11     6     8 1   
    12     8     9 1   
    13     8    16 1   
    14     8    38 1   
    15     9    10 1   
    16     9    15 1   
    17     9    43 1   
    18    10    11 1   
    19    10    44 1   
    20    10    45 1   
    21    11    12 1   
    22    11    13 1   
    23    11    14 1   
    24    12    46 1   
    25    12    47 1   
    26    12    48 1   
    27    13    49 1   
    28    13    50 1   
    29    13    51 1   
    30    14    52 1   
    31    14    53 1   
    32    14    54 1   
    33    15    25 1   
    34    15    55 1   
    35    16    17 1   
    36    16    25 1   
    37    16    56 1   
    38    17    18 ar  
    39    17    21 ar  
    40    18    19 ar  
    41    18    57 1   
    42    19    20 ar  
    43    19    58 1   
    44    20    23 ar  
    45    20    59 1   
    46    21    22 1   
    47    21    23 ar  
    48    23    24 1   
    49    25    26 1   
    50    25    60 1   
    51    26    27 1   
    52    26    37 2   
    53    27    28 1   
    54    27    61 1   
    55    28    29 ar  
    56    28    30 ar  
    57    29    36 ar  
    58    29    62 1   
    59    30    31 ar  
    60    30    63 1   
    61    31    32 ar  
    62    31    64 1   
    63    32    33 1   
    64    32    36 ar  
    65    33    34 2   
    66    33    35 1   
    67    35    65 1   
    68    35    66 1   
    69    36    67 1   
    70    38    39 ar  
    71    39    40 ar  
    72    39    68 1   
    73    40    69 1   
@<TRIPOS>SUBSTRUCTURE
     1 20U         1 TEMP              0 ****  ****    0 ROOT
