@<TRIPOS>MOLECULE
20X
   42    43     1     0     0
SMALL
No Charge or Current Charge


@<TRIPOS>ATOM
      1 C1          -1.8660     0.4290    -0.4560 c6         1 20X       0.300700
      2 F1           6.7580    -2.6040     0.5840 f          1 20X      -0.172000
      3 N1          -0.5730     1.0430    -0.1780 ns         1 20X      -0.431900
      4 S1          -1.4010     3.5780    -0.4920 s          1 20X      -0.616400
      5 C2          -1.7040    -1.0300    -1.0020 c6         1 20X       0.099300
      6 N2           0.9760     2.6570     0.3280 ns         1 20X      -0.227900
      7 O2          -1.0280    -1.0740    -2.2820 oh         1 20X      -0.712000
      8 C3          -3.1120    -1.6760    -1.1380 c6         1 20X       0.139300
      9 N3           1.9410     1.7050     0.6390 n2         1 20X      -0.489300
     10 O3          -4.6070     1.3290     2.6420 oh         1 20X      -0.704000
     11 C4          -3.8710    -1.6230     0.2190 c6         1 20X       0.142300
     12 O4          -5.1840    -2.1940     0.0630 oh         1 20X      -0.714000
     13 C5          -3.9210    -0.1460     0.7210 c6         1 20X       0.179300
     14 O5          -2.5710     0.3890     0.8010 os         1 20X      -0.455000
     15 C6          -4.5890    -0.0210     2.1310 c3         1 20X       0.172600
     16 O6          -2.9920    -3.0310    -1.6040 oh         1 20X      -0.666000
     17 C7          -0.3070     2.3780    -0.0910 cs         1 20X       0.495400
     18 C8           2.8890     1.4560    -0.2150 ce         1 20X       0.417800
     19 C9           3.9010     0.3820     0.0180 ca         1 20X      -0.157900
     20 C10          4.8890     0.1420    -0.9610 ca         1 20X      -0.054500
     21 C11          5.8510    -0.8650    -0.7690 ca         1 20X      -0.157000
     22 C12          5.8320    -1.6370     0.4010 ca         1 20X       0.190000
     23 C13          4.8570    -1.4100     1.3820 ca         1 20X      -0.157000
     24 C14          3.8920    -0.4040     1.1940 ca         1 20X      -0.054500
     25 H1          -2.4190     1.0440    -1.1850 h2         1 20X       0.109700
     26 HN1          0.1730     0.4440     0.1530 hn         1 20X       0.334500
     27 H2          -1.1310    -1.6080    -0.2600 h1         1 20X       0.050700
     28 HN2          1.1850     3.6500     0.4170 hn         1 20X       0.350500
     29 HO2         -0.1480    -0.6400    -2.1730 ho         1 20X       0.516000
     30 H3          -3.6820    -1.0840    -1.8710 h1         1 20X       0.062700
     31 HO3         -4.9810     1.2870     3.5530 ho         1 20X       0.503000
     32 H4          -3.2990    -2.2110     0.9540 h1         1 20X       0.050700
     33 HO4         -5.0490    -2.9800    -0.5220 ho         1 20X       0.525000
     34 H5          -4.5030     0.4620     0.0130 h1         1 20X       0.072700
     35 H6          -4.0450    -0.6770     2.8240 h1         1 20X       0.035200
     36 H6A         -5.6160    -0.4050     2.0600 h1         1 20X       0.035200
     37 HO6         -2.2560    -3.0010    -2.2600 ho         1 20X       0.467000
     38 H8           2.9660     2.0110    -1.1530 h4         1 20X      -0.004200
     39 H10          4.9110     0.7360    -1.8730 ha         1 20X       0.123500
     40 H11          6.6110    -1.0470    -1.5250 ha         1 20X       0.137500
     41 H13          4.8490    -2.0130     2.2860 ha         1 20X       0.137500
     42 H14          3.1420    -0.2400     1.9650 ha         1 20X       0.123500
@<TRIPOS>BOND
     1     1     3 1   
     2     1     5 1   
     3     1    14 1   
     4     1    25 1   
     5     2    22 1   
     6     3    17 1   
     7     3    26 1   
     8     4    17 2   
     9     5     7 1   
    10     5     8 1   
    11     5    27 1   
    12     6     9 1   
    13     6    17 1   
    14     6    28 1   
    15     7    29 1   
    16     8    11 1   
    17     8    16 1   
    18     8    30 1   
    19     9    18 2   
    20    10    15 1   
    21    10    31 1   
    22    11    12 1   
    23    11    13 1   
    24    11    32 1   
    25    12    33 1   
    26    13    14 1   
    27    13    15 1   
    28    13    34 1   
    29    15    35 1   
    30    15    36 1   
    31    16    37 1   
    32    18    19 1   
    33    18    38 1   
    34    19    20 ar  
    35    19    24 ar  
    36    20    21 ar  
    37    20    39 1   
    38    21    22 ar  
    39    21    40 1   
    40    22    23 ar  
    41    23    24 ar  
    42    23    41 1   
    43    24    42 1   
@<TRIPOS>SUBSTRUCTURE
     1 20X         1 TEMP              0 ****  ****    0 ROOT
