@<TRIPOS>MOLECULE
20Y
   42    44     1     0     0
SMALL
No Charge or Current Charge


@<TRIPOS>ATOM
      1 C14         -1.4940     1.2040    -0.1570 ca         1 20Y      -0.101000
      2 C5           4.8260    -0.6060     0.0140 ca         1 20Y       0.007000
      3 C6           4.1120    -1.6490    -0.5990 ca         1 20Y      -0.166000
      4 C11          0.5080    -0.3510    -0.5850 c          1 20Y       0.618700
      5 C7           2.7230    -1.5590    -0.7890 ca         1 20Y      -0.041500
      6 C8           2.0090    -0.4170    -0.3670 ca         1 20Y      -0.187600
      7 C9           2.7290     0.6330     0.2540 ca         1 20Y      -0.041500
      8 C10          4.1190     0.5370     0.4400 ca         1 20Y      -0.166000
      9 C1           8.6160    -0.5630     0.6630 c3         1 20Y      -0.182100
     10 C2           7.2160     0.0450     0.7070 c          1 20Y       0.609100
     11 O3           7.0210     1.1580     1.1810 o          1 20Y      -0.574100
     12 O12         -0.1000    -1.2830    -1.1040 o          1 20Y      -0.586100
     13 N13         -0.1180     0.8220    -0.1810 ns         1 20Y      -0.166000
     14 C15         -2.5250     0.2380    -0.0940 ca         1 20Y      -0.055000
     15 C16         -3.8800     0.6210    -0.0320 ca         1 20Y      -0.042000
     16 C17         -4.2020     1.9930    -0.0330 ca         1 20Y      -0.059000
     17 C18         -3.1860     2.9590    -0.0850 ca         1 20Y      -0.172000
     18 C19         -1.8390     2.5760    -0.1460 ca         1 20Y       0.278000
     19 N20         -0.8810     3.5590    -0.2140 nv         1 20Y      -1.074000
     20 C21         -4.9270    -0.4040     0.0240 cc         1 20Y      -0.144000
     21 C22         -6.1170    -0.1980     0.6780 cd         1 20Y      -0.136000
     22 C23         -6.9740    -1.3310     0.6250 cd         1 20Y      -0.131000
     23 C24         -6.4400    -2.3970    -0.0570 cc         1 20Y      -0.248000
     24 S25         -4.8230    -2.0260    -0.6560 ss         1 20Y       0.211000
     25 H1           4.6360    -2.5410    -0.9360 ha         1 20Y       0.133000
     26 H2           2.2040    -2.3880    -1.2680 ha         1 20Y       0.125500
     27 H3           2.2290     1.5330     0.6040 ha         1 20Y       0.125500
     28 H4           4.6260     1.3670     0.9220 ha         1 20Y       0.133000
     29 H5           8.8530    -0.8380    -0.3710 hc         1 20Y       0.066033
     30 H6           9.3770     0.0990     1.0910 hc         1 20Y       0.066033
     31 H7           8.5970    -1.5370     1.1640 hc         1 20Y       0.066033
     32 H8           6.5750    -1.6570    -0.1780 hn         1 20Y       0.151000
     33 H9           0.5070     1.5220     0.1920 hn         1 20Y       0.160000
     34 H10         -2.2810    -0.8190    -0.0630 ha         1 20Y       0.129000
     35 H11         -5.2390     2.3170    -0.0040 ha         1 20Y       0.116000
     36 H12         -3.4530     4.0130    -0.0850 ha         1 20Y       0.113000
     37 H13         -1.1820     4.5240    -0.3370 hn         1 20Y       0.451500
     38 H14          0.0440     3.3310    -0.5680 hn         1 20Y       0.451500
     39 H15         -6.3830     0.7210     1.1920 ha         1 20Y       0.132000
     40 H16         -7.9590    -1.3530     1.0850 ha         1 20Y       0.131000
     41 H17         -6.8680    -3.3730    -0.2470 h4         1 20Y       0.149000
     42 N4           6.2300    -0.7720     0.1700 ns         1 20Y      -0.149000
@<TRIPOS>BOND
     1     1    13 1   
     2     1    14 ar  
     3     1    18 ar  
     4     2     3 ar  
     5     2     8 ar  
     6     2    42 1   
     7     3     5 ar  
     8     3    25 1   
     9     4     6 1   
    10     4    12 2   
    11     4    13 1   
    12     5     6 ar  
    13     5    26 1   
    14     6     7 ar  
    15     7     8 ar  
    16     7    27 1   
    17     8    28 1   
    18     9    10 1   
    19     9    29 1   
    20     9    30 1   
    21     9    31 1   
    22    10    11 2   
    23    10    42 1   
    24    13    33 1   
    25    14    15 ar  
    26    14    34 1   
    27    15    16 ar  
    28    15    20 1   
    29    16    17 ar  
    30    16    35 1   
    31    17    18 ar  
    32    17    36 1   
    33    18    19 1   
    34    19    37 1   
    35    19    38 1   
    36    20    21 2   
    37    20    24 1   
    38    21    22 1   
    39    21    39 1   
    40    22    23 2   
    41    22    40 1   
    42    23    24 1   
    43    23    41 1   
    44    32    42 1   
@<TRIPOS>SUBSTRUCTURE
     1 20Y         1 TEMP              0 ****  ****    0 ROOT
