@<TRIPOS>MOLECULE
20Z
   45    48     1     0     0
SMALL
bcc


@<TRIPOS>ATOM
      1 N01         -0.5960     1.4570     0.3350 nc         1 20Z      -0.794000
      2 N02         -1.2900    -0.6620    -0.4170 nu         1 20Z      -0.724300
      3 N03          0.4830     3.3910     0.9970 nv         1 20Z      -0.936500
      4 N04         -7.4980    -1.4210     1.1930 n8         1 20Z      -0.892700
      5 C05          1.7420     1.4350     0.2970 cd         1 20Z      -0.387000
      6 C06          0.5570     2.1390     0.5580 cc         1 20Z       0.756200
      7 C07         -0.3540     0.2580    -0.1060 cd         1 20Z       0.755300
      8 C08         -2.6740    -0.5760    -0.3420 ca         1 20Z       0.219600
      9 C09          3.0600     1.9590     0.3950 c          1 20Z       0.646300
     10 C10          4.2200     1.0680     0.1000 ca         1 20Z      -0.145600
     11 C11          5.2660     1.5690    -0.7140 ca         1 20Z      -0.087000
     12 C12          6.3660     0.8050    -0.9770 ca         1 20Z      -0.124000
     13 C13          6.5030    -0.4900    -0.4200 ca         1 20Z      -0.024000
     14 C14          5.4720    -0.9850     0.4180 ca         1 20Z      -0.046000
     15 C15          4.3330    -0.1810     0.6570 ca         1 20Z      -0.088000
     16 C16         -3.3850    -1.7270    -0.7080 ca         1 20Z      -0.193000
     17 C17         -4.7610    -1.7460    -0.6710 ca         1 20Z       0.003500
     18 C18         -5.4500    -0.6070    -0.2700 ca         1 20Z      -0.305500
     19 C19         -4.7610     0.5390     0.0900 ca         1 20Z       0.003500
     20 C20         -3.3760     0.5610     0.0610 ca         1 20Z      -0.193000
     21 C21          7.6360    -1.2980    -0.6650 ca         1 20Z      -0.119000
     22 C22          7.7400    -2.5400    -0.0990 ca         1 20Z      -0.120000
     23 C23          6.7160    -3.0310     0.7390 ca         1 20Z      -0.128000
     24 C24          5.6070    -2.2700     0.9930 ca         1 20Z      -0.112000
     25 O25          3.2760     3.1380     0.6920 o          1 20Z      -0.590100
     26 O26         -7.7020    -1.5310    -1.2750 o          1 20Z      -0.616800
     27 O27         -7.6850     0.7400    -0.2260 o          1 20Z      -0.616800
     28 S28          1.3190    -0.1630    -0.2910 ss         1 20Z      -0.203300
     29 S29         -7.2120    -0.6380    -0.2340 sy         1 20Z       1.274200
     30 HN02        -0.9410    -1.5510    -0.7440 hn         1 20Z       0.455800
     31 HN03        -0.4130     3.8220     1.1450 hn         1 20Z       0.464300
     32 HN0A         1.3250     3.9240     1.1340 hn         1 20Z       0.464300
     33 HN04        -7.3290    -0.8320     2.0030 hn         1 20Z       0.416800
     34 HN0B        -8.4410    -1.7960     1.2260 hn         1 20Z       0.416800
     35 H11          5.1810     2.5600    -1.1400 ha         1 20Z       0.146000
     36 H12          7.1540     1.1890    -1.6130 ha         1 20Z       0.134000
     37 H15          3.5660    -0.5650     1.3200 ha         1 20Z       0.139000
     38 H16         -2.8510    -2.6130    -1.0280 ha         1 20Z       0.155000
     39 H17         -5.2850    -2.6470    -0.9620 ha         1 20Z       0.156000
     40 H19         -5.2890     1.4300     0.4000 ha         1 20Z       0.156000
     41 H20         -2.8550     1.4600     0.3480 ha         1 20Z       0.155000
     42 H21          8.4240    -0.9190    -1.3050 ha         1 20Z       0.133000
     43 H22          8.6110    -3.1530    -0.2910 ha         1 20Z       0.132000
     44 H23          6.8130    -4.0140     1.1800 ha         1 20Z       0.132000
     45 H24          4.8190    -2.6460     1.6330 ha         1 20Z       0.131000
@<TRIPOS>BOND
     1     1     6 1   
     2     1     7 2   
     3     2     7 1   
     4     2     8 1   
     5     2    30 1   
     6     3     6 1   
     7     3    31 1   
     8     3    32 1   
     9     4    29 1   
    10     4    33 1   
    11     4    34 1   
    12     5     6 2   
    13     5     9 1   
    14     5    28 1   
    15     7    28 1   
    16     8    16 ar  
    17     8    20 ar  
    18     9    10 1   
    19     9    25 2   
    20    10    11 ar  
    21    10    15 ar  
    22    11    12 ar  
    23    11    35 1   
    24    12    13 ar  
    25    12    36 1   
    26    13    14 ar  
    27    13    21 ar  
    28    14    15 ar  
    29    14    24 ar  
    30    15    37 1   
    31    16    17 ar  
    32    16    38 1   
    33    17    18 ar  
    34    17    39 1   
    35    18    19 ar  
    36    18    29 1   
    37    19    20 ar  
    38    19    40 1   
    39    20    41 1   
    40    21    22 ar  
    41    21    42 1   
    42    22    23 ar  
    43    22    43 1   
    44    23    24 ar  
    45    23    44 1   
    46    24    45 1   
    47    26    29 2   
    48    27    29 2   
@<TRIPOS>SUBSTRUCTURE
     1 20Z         1 TEMP              0 ****  ****    0 ROOT
