@<TRIPOS>MOLECULE
20Z
   45    48     1     0     0
SMALL
No Charge or Current Charge


@<TRIPOS>ATOM
      1 N01         -0.6210     1.1400     0.7090 nc         1 20Z      -0.794000
      2 N02         -1.3460    -0.8430    -0.2220 nu         1 20Z      -0.917900
      3 N03          0.3230     2.9260     1.5480 nv         1 20Z      -1.046900
      4 N04         -7.7540    -0.6360     1.0750 n8         1 20Z      -1.003100
      5 C05          1.7030     1.2000     0.5840 cd         1 20Z      -0.466600
      6 C06          0.5320     1.7690     0.9620 cc         1 20Z       0.690900
      7 C07         -0.3450     0.0180     0.0890 cd         1 20Z       0.755300
      8 C08         -2.7370    -0.7530    -0.2740 ca         1 20Z       0.358000
      9 C09          3.0210     1.8600     0.6790 c          1 20Z       0.646300
     10 C10          4.2410     1.0800     0.2620 ca         1 20Z      -0.145600
     11 C11          5.1940     1.6770    -0.5900 ca         1 20Z      -0.069000
     12 C12          6.3450     0.9700    -0.9790 ca         1 20Z      -0.106000
     13 C13          6.5620    -0.3390    -0.5110 ca         1 20Z      -0.024000
     14 C14          5.6220    -0.9380     0.3570 ca         1 20Z      -0.046000
     15 C15          4.4710    -0.2260     0.7440 ca         1 20Z      -0.070000
     16 C16         -3.4800    -1.9430    -0.2320 ca         1 20Z      -0.175000
     17 C17         -4.8840    -1.9170    -0.2990 ca         1 20Z       0.021500
     18 C18         -5.5580    -0.6870    -0.4190 ca         1 20Z      -0.305500
     19 C19         -4.8180     0.5110    -0.4790 ca         1 20Z       0.021500
     20 C20         -3.4150     0.4720    -0.4110 ca         1 20Z      -0.175000
     21 C21          7.7130    -1.0510    -0.8980 ca         1 20Z      -0.101000
     22 C22          7.9280    -2.3560    -0.4210 ca         1 20Z      -0.102000
     23 C23          6.9940    -2.9520     0.4430 ca         1 20Z      -0.110000
     24 C24          5.8430    -2.2450     0.8330 ca         1 20Z      -0.094000
     25 O25          3.1350     3.0150     1.0730 o          1 20Z      -0.590100
     26 O26         -7.8600    -1.9230    -1.0210 o          1 20Z      -0.546000
     27 O27         -7.8000     0.6460    -0.9990 o          1 20Z      -0.546000
     28 S28          1.3610    -0.3580    -0.1590 ss         1 20Z      -0.058400
     29 S29         -7.3470    -0.6530    -0.5080 sy         1 20Z       1.132600
     30 HN02        -0.9800    -1.7680    -0.4210 hn         1 20Z       0.511000
     31 HN03        -0.6070     3.2950     1.4090 hn         1 20Z       0.519500
     32 HN0A         1.0940     3.5830     1.4860 hn         1 20Z       0.519500
     33 HN04        -6.9080    -0.2790     1.5110 hn         1 20Z       0.472000
     34 HN0B        -8.3940     0.1540     1.1000 hn         1 20Z       0.472000
     35 H11          5.0380     2.6900    -0.9570 ha         1 20Z       0.128000
     36 H12          7.0660     1.4410    -1.6420 ha         1 20Z       0.116000
     37 H15          3.7610    -0.6850     1.4280 ha         1 20Z       0.121000
     38 H16         -2.9720    -2.8980    -0.1380 ha         1 20Z       0.137000
     39 H17         -5.4400    -2.8530    -0.2550 ha         1 20Z       0.138000
     40 H19         -5.3200     1.4720    -0.5850 ha         1 20Z       0.138000
     41 H20         -2.8640     1.4020    -0.4810 ha         1 20Z       0.137000
     42 H21          8.4410    -0.5950    -1.5650 ha         1 20Z       0.115000
     43 H22          8.8180    -2.9050    -0.7220 ha         1 20Z       0.114000
     44 H23          7.1610    -3.9620     0.8120 ha         1 20Z       0.114000
     45 H24          5.1250    -2.7130     1.5020 ha         1 20Z       0.113000
@<TRIPOS>BOND
     1     1     6 1   
     2     1     7 2   
     3     2     7 1   
     4     2     8 1   
     5     2    30 1   
     6     3     6 1   
     7     3    31 1   
     8     3    32 1   
     9     4    29 1   
    10     4    33 1   
    11     4    34 1   
    12     5     6 2   
    13     5     9 1   
    14     5    28 1   
    15     7    28 1   
    16     8    16 ar  
    17     8    20 ar  
    18     9    10 1   
    19     9    25 2   
    20    10    11 ar  
    21    10    15 ar  
    22    11    12 ar  
    23    11    35 1   
    24    12    13 ar  
    25    12    36 1   
    26    13    14 ar  
    27    13    21 ar  
    28    14    15 ar  
    29    14    24 ar  
    30    15    37 1   
    31    16    17 ar  
    32    16    38 1   
    33    17    18 ar  
    34    17    39 1   
    35    18    19 ar  
    36    18    29 1   
    37    19    20 ar  
    38    19    40 1   
    39    20    41 1   
    40    21    22 ar  
    41    21    42 1   
    42    22    23 ar  
    43    22    43 1   
    44    23    24 ar  
    45    23    44 1   
    46    24    45 1   
    47    26    29 2   
    48    27    29 2   
@<TRIPOS>SUBSTRUCTURE
     1 20Z         1 TEMP              0 ****  ****    0 ROOT
