@<TRIPOS>MOLECULE
210
   20    19     1     0     0
SMALL
No Charge or Current Charge


@<TRIPOS>ATOM
      1 P1          -1.4630    -0.8290    -0.0730 p5         1 210       1.362000
      2 O2          -1.9700     0.0230    -1.1880 o          1 210      -0.968167
      3 O3          -2.5440    -0.8720     0.9610 o          1 210      -0.968167
      4 O5          -1.2560    -2.2310    -0.5380 o          1 210      -0.968167
      5 C7          -0.0050    -0.0850     0.8440 c3         1 210      -0.459000
      6 P8           1.4030    -0.5570    -0.3070 p5         1 210       1.362000
      7 O9           1.7920    -1.9900    -0.1260 o          1 210      -0.968167
      8 O10          1.1460    -0.2660    -1.7480 o          1 210      -0.968167
      9 O12          2.5970     0.2400     0.1180 o          1 210      -0.968167
     10 O14          0.0660    -0.6140     2.2430 oh         1 210      -0.739000
     11 C16         -0.1480     1.4770     0.9850 c3         1 210       0.017600
     12 C19          0.0330     2.3810    -0.2790 c3         1 210       0.118800
     13 N22         -0.2090     3.8210     0.0190 n8         1 210      -1.023200
     14 HO14        -0.8450    -0.9410     2.4430 ho         1 210       0.434000
     15 H161         0.5850     1.8220     1.7270 hc         1 210      -0.031300
     16 H162        -1.1310     1.6930     1.4250 hc         1 210      -0.031300
     17 H191        -0.6580     2.0740    -1.0730 h1         1 210       0.075200
     18 H192         1.0560     2.2780    -0.6690 h1         1 210       0.075200
     19 H221        -0.1680     4.3540    -0.8560 hn         1 210       0.323500
     20 H222        -1.1770     3.9300     0.3400 hn         1 210       0.323500
@<TRIPOS>BOND
     1     1     2 1   
     2     1     3 1   
     3     1     4 1   
     4     1     5 1   
     5     5     6 1   
     6     5    10 1   
     7     5    11 1   
     8     6     7 1   
     9     6     8 1   
    10     6     9 1   
    11    10    14 1   
    12    11    12 1   
    13    11    15 1   
    14    11    16 1   
    15    12    13 1   
    16    12    17 1   
    17    12    18 1   
    18    13    19 1   
    19    13    20 1   
@<TRIPOS>SUBSTRUCTURE
     1 210         1 TEMP              0 ****  ****    0 ROOT
