@<TRIPOS>MOLECULE
210
   20    19     1     0     0
SMALL
bcc


@<TRIPOS>ATOM
      1 P1          -1.6220    -0.7580    -0.0070 p5         1 210       1.204200
      2 O2          -2.3370     0.3190    -0.8340 o          1 210      -0.968167
      3 O3          -2.3530    -1.0320     1.3510 o          1 210      -0.968167
      4 O5          -1.3750    -2.0510    -0.7850 o          1 210      -0.968167
      5 C7          -0.0060    -0.0700     0.6840 c3         1 210      -0.166600
      6 P8           1.5560    -0.5460    -0.2150 p5         1 210       1.204200
      7 O9           1.7740    -2.0500     0.0110 o          1 210      -0.968167
      8 O10          1.3460    -0.1700    -1.6920 o          1 210      -0.968167
      9 O12          2.6690     0.2920     0.4550 o          1 210      -0.968167
     10 O14          0.0630    -0.6360     2.0090 oh         1 210      -0.676800
     11 C16         -0.1190     1.4490     0.8780 c3         1 210       0.017600
     12 C19          0.0530     2.3430    -0.3380 c3         1 210       0.118800
     13 N22         -0.2820     3.7270     0.0150 n8         1 210      -0.912800
     14 HO14        -0.8890    -0.8710     2.1460 ho         1 210       0.395000
     15 H161         0.6270     1.7450     1.6230 hc         1 210      -0.031300
     16 H162        -1.0990     1.6700     1.3220 hc         1 210      -0.031300
     17 H191        -0.5510     1.9490    -1.1580 h1         1 210       0.075200
     18 H192         1.0940     2.3150    -0.6590 h1         1 210       0.075200
     19 H221        -0.1770     4.3170    -0.8010 hn         1 210       0.268300
     20 H222        -1.2690     3.7680     0.2440 hn         1 210       0.268300
@<TRIPOS>BOND
     1     1     2 1   
     2     1     3 1   
     3     1     4 1   
     4     1     5 1   
     5     5     6 1   
     6     5    10 1   
     7     5    11 1   
     8     6     7 1   
     9     6     8 1   
    10     6     9 1   
    11    10    14 1   
    12    11    12 1   
    13    11    15 1   
    14    11    16 1   
    15    12    13 1   
    16    12    17 1   
    17    12    18 1   
    18    13    19 1   
    19    13    20 1   
@<TRIPOS>SUBSTRUCTURE
     1 210         1 TEMP              0 ****  ****    0 ROOT
