@<TRIPOS>MOLECULE
211
   25    24     1     0     0
SMALL
bcc


@<TRIPOS>ATOM
      1 O1          -1.6000     2.4320    -0.7640 oh         1 211      -0.585133
      2 O2          -1.3990    -2.6190     0.7020 oh         1 211      -0.585133
      3 C1          -0.3770     1.1700     0.8770 c3         1 211       0.189467
      4 C2          -0.4850     2.4740     0.0990 c3         1 211       0.125067
      5 O3           2.5220    -0.7010     1.1540 oh         1 211      -0.585133
      6 C3          -1.2420    -0.6050    -0.5790 c3         1 211       0.189467
      7 C4          -1.2470    -2.1220    -0.6080 c3         1 211       0.125067
      8 C5           1.0990    -0.0380    -0.6530 c3         1 211       0.189467
      9 C6           2.3650     0.2510     0.1270 c3         1 211       0.125067
     10 N1          -0.1120    -0.0460     0.1370 n3         1 211      -0.725600
     11 HO1         -1.5980     3.2340    -1.2940 ho         1 211       0.396000
     12 HO2         -1.3890    -3.5790     0.6580 ho         1 211       0.396000
     13 H11          0.4080     1.3110     1.6250 h1         1 211       0.045200
     14 H12         -1.2980     1.0230     1.4490 h1         1 211       0.045200
     15 H21          0.4420     2.6560    -0.4600 h1         1 211       0.013033
     16 H22         -0.5700     3.2880     0.8310 h1         1 211       0.013033
     17 HO3          3.3620    -0.5290     1.5890 ho         1 211       0.396000
     18 H31         -2.1640    -0.2740    -0.0960 h1         1 211       0.045200
     19 H32         -1.3040    -0.2530    -1.6190 h1         1 211       0.045200
     20 H41         -2.0730    -2.4380    -1.2590 h1         1 211       0.013033
     21 H42         -0.3280    -2.4990    -1.0750 h1         1 211       0.013033
     22 H51          1.2090    -1.0210    -1.1190 h1         1 211       0.045200
     23 H52          1.0640     0.6810    -1.4900 h1         1 211       0.045200
     24 H61          3.1980     0.2210    -0.5880 h1         1 211       0.013033
     25 H62          2.3450     1.2720     0.5290 h1         1 211       0.013033
@<TRIPOS>BOND
     1     1     4 1   
     2     1    11 1   
     3     2     7 1   
     4     2    12 1   
     5     3     4 1   
     6     3    10 1   
     7     3    13 1   
     8     3    14 1   
     9     4    15 1   
    10     4    16 1   
    11     5     9 1   
    12     5    17 1   
    13     6     7 1   
    14     6    10 1   
    15     6    18 1   
    16     6    19 1   
    17     7    20 1   
    18     7    21 1   
    19     8     9 1   
    20     8    10 1   
    21     8    22 1   
    22     8    23 1   
    23     9    24 1   
    24     9    25 1   
@<TRIPOS>SUBSTRUCTURE
     1 211         1 TEMP              0 ****  ****    0 ROOT
