@<TRIPOS>MOLECULE
211
   25    24     1     0     0
SMALL
No Charge or Current Charge


@<TRIPOS>ATOM
      1 O1          -1.7410     2.5020    -0.7510 oh         1 211      -0.647333
      2 O2          -1.3050    -2.9430     0.4220 oh         1 211      -0.647333
      3 C1          -0.3470     1.2820     0.9200 c3         1 211       0.189467
      4 C2          -0.4850     2.5000    -0.0500 c3         1 211       0.148267
      5 O3           2.7320    -0.5850     1.3710 oh         1 211      -0.647333
      6 C3          -1.3460    -0.5930    -0.3950 c3         1 211       0.189467
      7 C4          -1.3560    -2.1130    -0.7520 c3         1 211       0.148267
      8 C5           1.1270    -0.1980    -0.4920 c3         1 211       0.189467
      9 C6           2.4610     0.2150     0.2060 c3         1 211       0.148267
     10 N1          -0.1330    -0.0730     0.3120 n3         1 211      -0.725600
     11 HO1         -1.7490     3.3030    -1.3200 ho         1 211       0.435000
     12 HO2         -1.2580    -3.8740     0.1110 ho         1 211       0.435000
     13 H11          0.4850     1.5040     1.6010 h1         1 211       0.045200
     14 H12         -1.2420     1.2580     1.5570 h1         1 211       0.045200
     15 H21          0.3510     2.5050    -0.7600 h1         1 211       0.013033
     16 H22         -0.4050     3.4180     0.5470 h1         1 211       0.013033
     17 HO3          3.5660    -0.2450     1.7640 ho         1 211       0.435000
     18 H31         -2.2380    -0.4010     0.2170 h1         1 211       0.045200
     19 H32         -1.4880    -0.0410    -1.3330 h1         1 211       0.045200
     20 H41         -2.2750    -2.3260    -1.3140 h1         1 211       0.013033
     21 H42         -0.5140    -2.3420    -1.4180 h1         1 211       0.013033
     22 H51          1.2560    -1.2390    -0.8170 h1         1 211       0.045200
     23 H52          1.0360     0.3980    -1.4110 h1         1 211       0.045200
     24 H61          3.2770     0.1000    -0.5180 h1         1 211       0.013033
     25 H62          2.4200     1.2780     0.4760 h1         1 211       0.013033
@<TRIPOS>BOND
     1     1     4 1   
     2     1    11 1   
     3     2     7 1   
     4     2    12 1   
     5     3     4 1   
     6     3    10 1   
     7     3    13 1   
     8     3    14 1   
     9     4    15 1   
    10     4    16 1   
    11     5     9 1   
    12     5    17 1   
    13     6     7 1   
    14     6    10 1   
    15     6    18 1   
    16     6    19 1   
    17     7    20 1   
    18     7    21 1   
    19     8     9 1   
    20     8    10 1   
    21     8    22 1   
    22     8    23 1   
    23     9    24 1   
    24     9    25 1   
@<TRIPOS>SUBSTRUCTURE
     1 211         1 TEMP              0 ****  ****    0 ROOT
