@<TRIPOS>MOLECULE
213
   72    77     1     0     0
SMALL
abcg2


@<TRIPOS>ATOM
      1 C1          -4.6520     3.7920     1.7630 ca         1 213      -0.119000
      2 C2          -3.6700     3.7880     2.7420 ca         1 213      -0.119000
      3 C3          -2.4430     3.1840     2.5030 ca         1 213      -0.082000
      4 C4          -2.1750     2.5730     1.2820 ca         1 213      -0.080300
      5 C5          -3.1740     2.5690     0.3100 ca         1 213      -0.082000
      6 C6          -4.3970     3.1770     0.5450 ca         1 213      -0.119000
      7 C10         -2.1320    -1.1400    -0.3290 ca         1 213      -0.119000
      8 C11         -2.2270    -0.3670     0.8230 ca         1 213      -0.148300
      9 C12         -3.4700    -0.2850     1.4490 ca         1 213      -0.119000
     10 C13         -4.5850    -0.9160     0.9240 ca         1 213      -0.085000
     11 C14         -4.4910    -1.6530    -0.2540 ca         1 213      -0.042300
     12 C15         -3.2450    -1.7780    -0.8590 ca         1 213      -0.085000
     13 C20          2.4320     2.6430     0.5590 ca         1 213      -0.108000
     14 C21          1.6640     1.9530     1.4940 ca         1 213      -0.133300
     15 C22          2.2080     0.8010     2.0580 ca         1 213      -0.108000
     16 C23          3.4590     0.3400     1.6820 ca         1 213      -0.114000
     17 C24          4.2210     1.0190     0.7290 cp         1 213       0.040000
     18 C25          3.6820     2.1830     0.1790 ca         1 213      -0.114000
     19 C30         -0.8620     1.8400     1.0400 c3         1 213       0.162300
     20 N31         -0.4980     1.9940    -0.3710 na         1 213       0.089600
     21 C32          0.2980     2.4440     1.8820 c3         1 213      -0.028100
     22 C35         -1.0370     0.3440     1.4100 c3         1 213      -0.003100
     23 C40          0.1030     4.9730    -3.0800 ca         1 213      -0.164000
     24 C41          0.4360     3.6600    -3.3130 ca         1 213      -0.029000
     25 C42          0.1740     2.7430    -2.2890 ca         1 213       0.016400
     26 C43         -0.4130     3.1480    -1.0900 ca         1 213      -0.084200
     27 C44         -0.7490     4.4840    -0.8450 ca         1 213      -0.094000
     28 C45         -0.4770     5.3760    -1.8580 ca         1 213      -0.117000
     29 N46          0.4170     1.4020    -2.2120 nc         1 213      -0.226400
     30 N47          0.0280     0.9920    -1.0700 nd         1 213      -0.087400
     31 C52         -5.7000    -2.3300    -0.8140 c3         1 213      -0.053700
     32 F53         -6.7700    -1.4540    -0.7240 f          1 213      -0.165500
     33 F54         -5.5200    -2.5080    -2.1730 f          1 213      -0.165500
     34 P55         -6.1440    -3.9740    -0.0030 p5         1 213       1.270500
     35 O56         -4.8730    -4.7940    -0.1910 o          1 213      -0.904500
     36 O57         -7.3490    -4.4580    -0.8060 o          1 213      -0.904500
     37 O58         -6.4550    -3.5670     1.4350 o          1 213      -0.904500
     38 C61          5.5560     0.5280     0.3310 cp         1 213      -0.118000
     39 C62          5.8140    -0.8390     0.2290 ca         1 213      -0.030000
     40 C63          7.0640    -1.3400    -0.1350 ca         1 213      -0.109500
     41 C64          8.0720    -0.4170    -0.4140 ca         1 213      -0.067000
     42 C65          7.8380     0.9510    -0.3260 ca         1 213      -0.179000
     43 C66          6.5890     1.4250     0.0470 ca         1 213      -0.147000
     44 P71          7.3750    -3.1720    -0.1650 p5         1 213       1.160000
     45 O72          7.5750    -3.5250     1.3120 o          1 213      -0.923833
     46 O73          8.6340    -3.3450    -1.0200 o          1 213      -0.923833
     47 O74          6.1070    -3.7700    -0.7790 o          1 213      -0.923833
     48 H1          -5.6060     4.2670     1.9480 ha         1 213       0.092000
     49 H2          -3.8540     4.2600     3.6990 ha         1 213       0.101500
     50 H3          -1.7030     3.1970     3.2910 ha         1 213       0.123000
     51 H5          -3.0110     2.0800    -0.6420 ha         1 213       0.123000
     52 H6          -5.1560     3.1610    -0.2270 ha         1 213       0.101500
     53 H12         -3.5700     0.2890     2.3620 ha         1 213       0.090500
     54 H13         -5.5320    -0.8320     1.4390 ha         1 213       0.131000
     55 H15         -3.1280    -2.3710    -1.7550 ha         1 213       0.131000
     56 H22          1.6520     0.2600     2.8150 ha         1 213       0.094000
     57 H23          3.8580    -0.5470     2.1580 ha         1 213       0.120500
     58 H25          4.2400     2.7360    -0.5670 ha         1 213       0.120500
     59 H321         0.1170     2.2110     2.9320 hc         1 213       0.038200
     60 H322         0.2650     3.5330     1.7940 hc         1 213       0.038200
     61 H351        -0.1190    -0.1930     1.1730 hc         1 213       0.061200
     62 H352        -1.1280     0.3340     2.4990 hc         1 213       0.061200
     63 H40          0.2910     5.7190    -3.8410 ha         1 213       0.090000
     64 H41          0.8870     3.3430    -4.2440 ha         1 213       0.123000
     65 H44         -1.1920     4.8120     0.0840 ha         1 213       0.121000
     66 H45         -0.7170     6.4210    -1.7140 ha         1 213       0.087000
     67 H62          5.0080    -1.5420     0.4080 ha         1 213       0.133000
     68 H64          9.0480    -0.7760    -0.7140 ha         1 213       0.117000
     69 H65          8.6330     1.6540    -0.5430 ha         1 213       0.052000
     70 H66          6.4250     2.4920     0.1330 ha         1 213       0.055000
     71 H10         -1.1760    -1.2480    -0.8240 ha         1 213       0.090500
     72 H20          2.0540     3.5580     0.1180 ha         1 213       0.094000
@<TRIPOS>BOND
     1     1     2 ar  
     2     1     6 ar  
     3     1    48 1   
     4     2     3 ar  
     5     2    49 1   
     6     3     4 ar  
     7     3    50 1   
     8     4     5 ar  
     9     4    19 1   
    10     5     6 ar  
    11     5    51 1   
    12     6    52 1   
    13     7     8 ar  
    14     7    12 ar  
    15     7    71 1   
    16     8     9 ar  
    17     8    22 1   
    18     9    10 ar  
    19     9    53 1   
    20    10    11 ar  
    21    10    54 1   
    22    11    12 ar  
    23    11    31 1   
    24    12    55 1   
    25    13    14 ar  
    26    13    18 ar  
    27    13    72 1   
    28    14    15 ar  
    29    14    21 1   
    30    15    16 ar  
    31    15    56 1   
    32    16    17 ar  
    33    16    57 1   
    34    17    18 ar  
    35    17    38 1   
    36    18    58 1   
    37    19    20 1   
    38    19    21 1   
    39    19    22 1   
    40    20    26 1   
    41    20    30 1   
    42    21    59 1   
    43    21    60 1   
    44    22    61 1   
    45    22    62 1   
    46    23    24 ar  
    47    23    28 ar  
    48    23    63 1   
    49    24    25 ar  
    50    24    64 1   
    51    25    26 ar  
    52    25    29 1   
    53    26    27 ar  
    54    27    28 ar  
    55    27    65 1   
    56    28    66 1   
    57    29    30 2   
    58    31    32 1   
    59    31    33 1   
    60    31    34 1   
    61    34    35 1   
    62    34    36 1   
    63    34    37 1   
    64    38    39 ar  
    65    38    43 ar  
    66    39    40 ar  
    67    39    67 1   
    68    40    41 ar  
    69    40    44 1   
    70    41    42 ar  
    71    41    68 1   
    72    42    43 ar  
    73    42    69 1   
    74    43    70 1   
    75    44    45 1   
    76    44    46 1   
    77    44    47 1   
@<TRIPOS>SUBSTRUCTURE
     1 213         1 TEMP              0 ****  ****    0 ROOT
