@<TRIPOS>MOLECULE
213
   72    77     1     0     0
SMALL
No Charge or Current Charge


@<TRIPOS>ATOM
      1 C1          -4.6740     3.9060     1.7720 ca         1 213      -0.119000
      2 C2          -3.6970     3.8050     2.7730 ca         1 213      -0.119000
      3 C3          -2.4810     3.1490     2.5150 ca         1 213      -0.082000
      4 C4          -2.2110     2.5870     1.2400 ca         1 213      -0.080300
      5 C5          -3.2230     2.6830     0.2510 ca         1 213      -0.082000
      6 C6          -4.4370     3.3390     0.5130 ca         1 213      -0.119000
      7 C10         -2.2550    -1.1940    -0.3560 ca         1 213      -0.119000
      8 C11         -2.3270    -0.3690     0.7820 ca         1 213      -0.148300
      9 C12         -3.5620    -0.2390     1.4470 ca         1 213      -0.119000
     10 C13         -4.7120    -0.8780     0.9560 ca         1 213      -0.085000
     11 C14         -4.6510    -1.6760    -0.2060 ca         1 213      -0.042300
     12 C15         -3.4050    -1.8370    -0.8480 ca         1 213      -0.085000
     13 C20          2.5000     2.6220     0.4900 ca         1 213      -0.108000
     14 C21          1.7060     1.9140     1.4110 ca         1 213      -0.133300
     15 C22          2.2260     0.7500     2.0070 ca         1 213      -0.108000
     16 C23          3.5100     0.2900     1.6690 ca         1 213      -0.114000
     17 C24          4.3170     0.9830     0.7320 cp         1 213       0.040000
     18 C25          3.7830     2.1610     0.1520 ca         1 213      -0.114000
     19 C30         -0.8760     1.8410     0.9300 c3         1 213       0.162300
     20 N31         -0.5080     2.0050    -0.5170 na         1 213       0.089600
     21 C32          0.3110     2.4230     1.7850 c3         1 213      -0.028100
     22 C35         -1.0750     0.3300     1.3320 c3         1 213      -0.003100
     23 C40          0.0130     5.1980    -3.0570 ca         1 213      -0.164000
     24 C41          0.2860     3.8530    -3.3900 ca         1 213      -0.029000
     25 C42          0.0610     2.8670    -2.4180 ca         1 213       0.016400
     26 C43         -0.4140     3.1990    -1.1850 ca         1 213      -0.084200
     27 C44         -0.6950     4.5240    -0.8110 ca         1 213      -0.094000
     28 C45         -0.4750     5.5330    -1.7710 ca         1 213      -0.117000
     29 N46          0.2650     1.4970    -2.5110 nc         1 213      -0.226400
     30 N47         -0.0660     0.9730    -1.3300 nd         1 213      -0.087400
     31 C52         -5.9110    -2.3670    -0.7480 c3         1 213      -0.053700
     32 F53         -7.0160    -1.6090    -0.5150 f          1 213      -0.165500
     33 F54         -5.8480    -2.4970    -2.1010 f          1 213      -0.165500
     34 P55         -6.1970    -4.0880     0.0050 p5         1 213       1.270500
     35 O56         -5.0320    -4.9760    -0.2980 o          1 213      -0.904500
     36 O57         -7.4350    -4.6950    -0.5760 o          1 213      -0.904500
     37 O58         -6.3600    -3.9740     1.4870 o          1 213      -0.904500
     38 C61          5.6890     0.4960     0.3740 cp         1 213      -0.118000
     39 C62          5.9860    -0.8920     0.3220 ca         1 213      -0.030000
     40 C63          7.2740    -1.3580    -0.0120 ca         1 213      -0.109500
     41 C64          8.2920    -0.4270    -0.2970 ca         1 213      -0.067000
     42 C65          8.0210     0.9500    -0.2520 ca         1 213      -0.179000
     43 C66          6.7350     1.4060     0.0780 ca         1 213      -0.147000
     44 P71          7.6140    -3.1670    -0.0640 p5         1 213       1.160000
     45 O72          7.9920    -3.6020     1.3120 o          1 213      -0.923833
     46 O73          8.7440    -3.4480    -0.9970 o          1 213      -0.923833
     47 O74          6.3850    -3.8990    -0.4870 o          1 213      -0.923833
     48 H1          -5.6150     4.4120     1.9760 ha         1 213       0.092000
     49 H2          -3.8830     4.2320     3.7550 ha         1 213       0.101500
     50 H3          -1.7650     3.0820     3.3270 ha         1 213       0.123000
     51 H5          -3.0840     2.2350    -0.7300 ha         1 213       0.123000
     52 H6          -5.1980     3.4020    -0.2620 ha         1 213       0.101500
     53 H12         -3.6370     0.3690     2.3460 ha         1 213       0.090500
     54 H13         -5.6550    -0.7530     1.4840 ha         1 213       0.131000
     55 H15         -3.3220    -2.4660    -1.7310 ha         1 213       0.131000
     56 H22          1.6390     0.2000     2.7390 ha         1 213       0.094000
     57 H23          3.8900    -0.6050     2.1540 ha         1 213       0.120500
     58 H25          4.3650     2.7180    -0.5760 ha         1 213       0.120500
     59 H321         0.1480     2.2030     2.8460 hc         1 213       0.038200
     60 H322         0.3000     3.5170     1.7110 hc         1 213       0.038200
     61 H351        -0.1840    -0.2460     1.0560 hc         1 213       0.061200
     62 H352        -1.1150     0.2720     2.4270 hc         1 213       0.061200
     63 H40          0.1810     5.9810    -3.7920 ha         1 213       0.090000
     64 H41          0.6650     3.5870    -4.3730 ha         1 213       0.123000
     65 H44         -1.0690     4.7770     0.1770 ha         1 213       0.121000
     66 H45         -0.6810     6.5710    -1.5220 ha         1 213       0.087000
     67 H62          5.2060    -1.6190     0.5320 ha         1 213       0.133000
     68 H64          9.2910    -0.7740    -0.5500 ha         1 213       0.117000
     69 H65          8.8100     1.6640    -0.4710 ha         1 213       0.052000
     70 H66          6.5550     2.4770     0.1190 ha         1 213       0.055000
     71 H10         -1.3080    -1.3500    -0.8640 ha         1 213       0.090500
     72 H20          2.1230     3.5320     0.0280 ha         1 213       0.094000
@<TRIPOS>BOND
     1     1     2 ar  
     2     1     6 ar  
     3     1    48 1   
     4     2     3 ar  
     5     2    49 1   
     6     3     4 ar  
     7     3    50 1   
     8     4     5 ar  
     9     4    19 1   
    10     5     6 ar  
    11     5    51 1   
    12     6    52 1   
    13     7     8 ar  
    14     7    12 ar  
    15     7    71 1   
    16     8     9 ar  
    17     8    22 1   
    18     9    10 ar  
    19     9    53 1   
    20    10    11 ar  
    21    10    54 1   
    22    11    12 ar  
    23    11    31 1   
    24    12    55 1   
    25    13    14 ar  
    26    13    18 ar  
    27    13    72 1   
    28    14    15 ar  
    29    14    21 1   
    30    15    16 ar  
    31    15    56 1   
    32    16    17 ar  
    33    16    57 1   
    34    17    18 ar  
    35    17    38 1   
    36    18    58 1   
    37    19    20 1   
    38    19    21 1   
    39    19    22 1   
    40    20    26 1   
    41    20    30 1   
    42    21    59 1   
    43    21    60 1   
    44    22    61 1   
    45    22    62 1   
    46    23    24 ar  
    47    23    28 ar  
    48    23    63 1   
    49    24    25 ar  
    50    24    64 1   
    51    25    26 ar  
    52    25    29 1   
    53    26    27 ar  
    54    27    28 ar  
    55    27    65 1   
    56    28    66 1   
    57    29    30 2   
    58    31    32 1   
    59    31    33 1   
    60    31    34 1   
    61    34    35 1   
    62    34    36 1   
    63    34    37 1   
    64    38    39 ar  
    65    38    43 ar  
    66    39    40 ar  
    67    39    67 1   
    68    40    41 ar  
    69    40    44 1   
    70    41    42 ar  
    71    41    68 1   
    72    42    43 ar  
    73    42    69 1   
    74    43    70 1   
    75    44    45 1   
    76    44    46 1   
    77    44    47 1   
@<TRIPOS>SUBSTRUCTURE
     1 213         1 TEMP              0 ****  ****    0 ROOT
