@<TRIPOS>MOLECULE
214
   80    86     1     0     0
SMALL
abcg2


@<TRIPOS>ATOM
      1 C1          22.3410    31.2690    49.9930 ca         1 214      -0.114000
      2 C2          22.8050    29.9920    50.2980 ca         1 214      -0.114500
      3 C3          23.9260    29.8310    51.1000 ca         1 214      -0.083500
      4 C4          24.6080    30.9370    51.6090 ca         1 214      -0.077300
      5 C5          24.1360    32.2110    51.3010 ca         1 214      -0.083500
      6 C6          23.0110    32.3760    50.4990 ca         1 214      -0.114500
      7 C10         24.2750    32.3320    55.1910 ca         1 214      -0.121000
      8 C11         24.0760    31.1700    54.4470 ca         1 214      -0.147300
      9 C12         22.7610    30.7970    54.1600 ca         1 214      -0.121000
     10 C13         21.6860    31.5640    54.5810 ca         1 214      -0.080500
     11 C14         21.8950    32.7340    55.3110 ca         1 214      -0.041300
     12 C15         23.2010    33.1060    55.6190 ca         1 214      -0.080500
     13 C20         29.1220    31.2880    52.6100 ca         1 214      -0.110000
     14 C21         28.0220    31.7470    53.3390 ca         1 214      -0.118300
     15 C22         28.2030    31.9850    54.7020 ca         1 214      -0.110000
     16 C23         29.4240    31.7480    55.3190 ca         1 214      -0.103500
     17 C24         30.5120    31.2500    54.5960 cp         1 214       0.012000
     18 C25         30.3380    31.0320    53.2250 ca         1 214      -0.103500
     19 C30         25.7780    30.7260    52.5680 c3         1 214       0.161300
     20 N31         26.5930    29.6040    52.0490 na         1 214       0.077600
     21 C32         26.6970    31.9810    52.6620 c3         1 214      -0.027100
     22 C35         25.2210    30.3170    53.9650 c3         1 214      -0.006100
     23 C40         28.4810    28.5020    48.5970 ca         1 214      -0.158000
     24 C41         28.6060    27.8050    49.7810 ca         1 214      -0.039000
     25 C42         27.9020    28.2960    50.8890 ca         1 214       0.010400
     26 C43         27.0990    29.4440    50.7890 ca         1 214      -0.071200
     27 C44         26.9710    30.1510    49.5880 ca         1 214      -0.086000
     28 C45         27.6750    29.6600    48.5070 ca         1 214      -0.113000
     29 N46         27.8430    27.8440    52.1850 nc         1 214      -0.249400
     30 N47         27.0720    28.6350    52.8590 nd         1 214      -0.114400
     31 C52         20.7250    33.5120    55.8340 c3         1 214      -0.049700
     32 F53         19.7140    33.4970    54.8620 f          1 214      -0.168500
     33 F54         21.0820    34.8620    55.9240 f          1 214      -0.168500
     34 P55         20.0280    32.9220    57.5070 p5         1 214       1.267500
     35 O56         21.2130    33.1050    58.4450 o          1 214      -0.900833
     36 O57         19.6450    31.4720    57.2380 o          1 214      -0.900833
     37 O58         18.8490    33.8480    57.7740 o          1 214      -0.900833
     38 C61         32.5410    29.8520    54.9380 ca         1 214      -0.148000
     39 C62         35.6870    28.2050    55.9840 ca         1 214      -0.203000
     40 C63         34.5220    28.4330    55.3110 ca         1 214      -0.092000
     41 C64         33.7600    29.5900    55.5970 ca         1 214      -0.106000
     42 C65         34.2530    30.4890    56.5920 ca         1 214       0.317000
     43 N66         35.4260    30.2290    57.2420 nb         1 214      -0.557000
     44 C67         36.1130    29.1420    56.9600 ca         1 214       0.296300
     45 C68         31.8040    30.9690    55.2580 cp         1 214      -0.047000
     46 C69         32.3090    31.8530    56.2450 ca         1 214      -0.100000
     47 C70         33.5040    31.6660    56.9100 ca         1 214      -0.044500
     48 P79         34.0310    32.9700    58.1480 p5         1 214       1.150000
     49 O80         34.0890    32.2630    59.5050 o          1 214      -0.914500
     50 O81         32.9200    34.0210    58.0670 o          1 214      -0.914500
     51 O82         35.3780    33.4990    57.6510 o          1 214      -0.914500
     52 H1          21.4660    31.3970    49.3690 ha         1 214       0.095000
     53 H2          22.2910    29.1200    49.9140 ha         1 214       0.101500
     54 H3          24.2700    28.8320    51.3370 ha         1 214       0.119500
     55 H5          24.6310    33.0890    51.6900 ha         1 214       0.119500
     56 H6          22.6590    33.3750    50.2740 ha         1 214       0.101500
     57 H10         25.2780    32.6390    55.4550 ha         1 214       0.082000
     58 H12         22.5780    29.8920    53.5950 ha         1 214       0.082000
     59 H13         20.6780    31.2480    54.3540 ha         1 214       0.131500
     60 H15         23.3820    33.9960    56.2050 ha         1 214       0.131500
     61 H20         29.0310    31.1360    51.5420 ha         1 214       0.102500
     62 H22         27.3820    32.3650    55.2940 ha         1 214       0.102500
     63 H23         29.5280    31.9350    56.3810 ha         1 214       0.124000
     64 H25         31.1720    30.6820    52.6300 ha         1 214       0.124000
     65 H321        26.8730    32.3470    51.6500 hc         1 214       0.055200
     66 H322        26.1430    32.7560    53.1890 hc         1 214       0.055200
     67 H351        24.8800    29.2860    53.8890 hc         1 214       0.063200
     68 H352        26.0390    30.3310    54.6840 hc         1 214       0.063200
     69 H40         29.0090    28.1620    47.7160 ha         1 214       0.093000
     70 H41         29.2220    26.9200    49.8620 ha         1 214       0.118000
     71 H44         26.3590    31.0360    49.5060 ha         1 214       0.130000
     72 H45         27.6090    30.1770    47.5580 ha         1 214       0.095000
     73 H61         32.1850    29.1430    54.2000 ha         1 214       0.077000
     74 H62         36.2870    27.3250    55.7870 ha         1 214       0.071000
     75 H711        38.2330    28.7900    57.0260 hc         1 214       0.026700
     76 H712        37.5910    29.7150    58.4000 hc         1 214       0.026700
     77 H713        37.3250    27.9640    58.2840 hc         1 214       0.026700
     78 H63         34.1650    27.7370    54.5600 ha         1 214       0.076000
     79 H69         31.7460    32.7450    56.4830 ha         1 214       0.159000
     80 C71         37.3900    28.8950    57.7140 c3         1 214      -0.123400
@<TRIPOS>BOND
     1     1     2 ar  
     2     1     6 ar  
     3     1    52 1   
     4     2     3 ar  
     5     2    53 1   
     6     3     4 ar  
     7     3    54 1   
     8     4     5 ar  
     9     4    19 1   
    10     5     6 ar  
    11     5    55 1   
    12     6    56 1   
    13     7     8 ar  
    14     7    12 ar  
    15     7    57 1   
    16     8     9 ar  
    17     8    22 1   
    18     9    10 ar  
    19     9    58 1   
    20    10    11 ar  
    21    10    59 1   
    22    11    12 ar  
    23    11    31 1   
    24    12    60 1   
    25    13    14 ar  
    26    13    18 ar  
    27    13    61 1   
    28    14    15 ar  
    29    14    21 1   
    30    15    16 ar  
    31    15    62 1   
    32    16    17 ar  
    33    16    63 1   
    34    17    18 ar  
    35    17    45 1   
    36    18    64 1   
    37    19    20 1   
    38    19    21 1   
    39    19    22 1   
    40    20    26 1   
    41    20    30 1   
    42    21    65 1   
    43    21    66 1   
    44    22    67 1   
    45    22    68 1   
    46    23    24 ar  
    47    23    28 ar  
    48    23    69 1   
    49    24    25 ar  
    50    24    70 1   
    51    25    26 ar  
    52    25    29 1   
    53    26    27 ar  
    54    27    28 ar  
    55    27    71 1   
    56    28    72 1   
    57    29    30 2   
    58    31    32 1   
    59    31    33 1   
    60    31    34 1   
    61    34    35 1   
    62    34    36 1   
    63    34    37 1   
    64    38    41 ar  
    65    38    45 ar  
    66    38    73 1   
    67    39    40 ar  
    68    39    44 ar  
    69    39    74 1   
    70    40    41 ar  
    71    40    78 1   
    72    41    42 ar  
    73    42    43 ar  
    74    42    47 ar  
    75    43    44 ar  
    76    44    80 1   
    77    45    46 ar  
    78    46    47 ar  
    79    46    79 1   
    80    47    48 1   
    81    48    49 1   
    82    48    50 1   
    83    48    51 1   
    84    75    80 1   
    85    76    80 1   
    86    77    80 1   
@<TRIPOS>SUBSTRUCTURE
     1 214         1 TEMP              0 ****  ****    0 ROOT
