@<TRIPOS>MOLECULE
214
   80    86     1     0     0
SMALL
No Charge or Current Charge


@<TRIPOS>ATOM
      1 C1          22.4460    31.0970    49.7500 ca         1 214      -0.114000
      2 C2          22.8820    29.8140    50.1090 ca         1 214      -0.114500
      3 C3          23.9160    29.6570    51.0470 ca         1 214      -0.083500
      4 C4          24.5460    30.7810    51.6360 ca         1 214      -0.077300
      5 C5          24.0760    32.0700    51.2750 ca         1 214      -0.083500
      6 C6          23.0400    32.2230    50.3380 ca         1 214      -0.114500
      7 C10         24.1120    32.3430    55.2740 ca         1 214      -0.121000
      8 C11         23.8470    31.2240    54.4620 ca         1 214      -0.147300
      9 C12         22.5220    30.9850    54.0500 ca         1 214      -0.121000
     10 C13         21.4880    31.8640    54.4130 ca         1 214      -0.080500
     11 C14         21.7550    33.0000    55.2060 ca         1 214      -0.041300
     12 C15         23.0780    33.2220    55.6410 ca         1 214      -0.080500
     13 C20         29.0980    31.3840    52.7050 ca         1 214      -0.110000
     14 C21         27.9560    31.6140    53.4960 ca         1 214      -0.118300
     15 C22         28.0980    31.6450    54.8960 ca         1 214      -0.110000
     16 C23         29.3520    31.4240    55.4920 ca         1 214      -0.103500
     17 C24         30.5050    31.1720    54.7080 cp         1 214       0.012000
     18 C25         30.3500    31.1600    53.3010 ca         1 214      -0.103500
     19 C30         25.6770    30.5730    52.6850 c3         1 214       0.161300
     20 N31         26.5490    29.4260    52.2650 na         1 214       0.077600
     21 C32         26.5950    31.8450    52.8260 c3         1 214      -0.027100
     22 C35         24.9650    30.2540    54.0520 c3         1 214      -0.006100
     23 C40         28.6090    28.4030    48.8580 ca         1 214      -0.158000
     24 C41         28.6270    27.6630    50.0620 ca         1 214      -0.039000
     25 C42         27.8710    28.1350    51.1450 ca         1 214       0.010400
     26 C43         27.1370    29.2770    51.0370 ca         1 214      -0.071200
     27 C44         27.0910    30.0440    49.8600 ca         1 214      -0.086000
     28 C45         27.8440    29.5890    48.7580 ca         1 214      -0.113000
     29 N46         27.7400    27.5850    52.4150 nc         1 214      -0.249400
     30 N47         26.9300    28.3890    53.1060 nd         1 214      -0.114400
     31 C52         20.6250    33.9660    55.5960 c3         1 214      -0.049700
     32 F53         19.6930    34.0420    54.6090 f          1 214      -0.168500
     33 F54         21.0990    35.2330    55.7360 f          1 214      -0.168500
     34 P55         19.7520    33.4700    57.2100 p5         1 214       1.267500
     35 O56         20.7370    33.4500    58.3340 o          1 214      -0.900833
     36 O57         19.1430    32.1130    57.0610 o          1 214      -0.900833
     37 O58         18.6730    34.4580    57.5230 o          1 214      -0.900833
     38 C61         32.7590    30.0160    54.7810 ca         1 214      -0.148000
     39 C62         36.1340    28.6440    55.3740 ca         1 214      -0.203000
     40 C63         34.8880    28.8650    54.7770 ca         1 214      -0.092000
     41 C64         34.0130    29.7880    55.3740 ca         1 214      -0.106000
     42 C65         34.4040    30.4720    56.5610 ca         1 214       0.317000
     43 N66         35.6220    30.2360    57.1160 nb         1 214      -0.557000
     44 C67         36.4630    29.3510    56.5410 ca         1 214       0.296300
     45 C68         31.8410    30.9290    55.3420 cp         1 214      -0.047000
     46 C69         32.2310    31.6070    56.5200 ca         1 214      -0.100000
     47 C70         33.4890    31.3900    57.1280 ca         1 214      -0.044500
     48 P79         33.8930    32.3370    58.6600 p5         1 214       1.150000
     49 O80         34.1540    31.3940    59.7880 o          1 214      -0.914500
     50 O81         32.7490    33.2240    59.0250 o          1 214      -0.914500
     51 O82         35.1060    33.1780    58.4340 o          1 214      -0.914500
     52 H1          21.6430    31.2190    49.0260 ha         1 214       0.095000
     53 H2          22.4150    28.9380    49.6650 ha         1 214       0.101500
     54 H3          24.2210    28.6480    51.3170 ha         1 214       0.119500
     55 H5          24.4920    32.9680    51.7230 ha         1 214       0.119500
     56 H6          22.6940    33.2190    50.0720 ha         1 214       0.101500
     57 H10         25.1190    32.5400    55.6270 ha         1 214       0.082000
     58 H12         22.2880    30.1180    53.4370 ha         1 214       0.082000
     59 H13         20.4740    31.6580    54.0770 ha         1 214       0.131500
     60 H15         23.3110    34.0800    56.2680 ha         1 214       0.131500
     61 H20         29.0190    31.3720    51.6200 ha         1 214       0.102500
     62 H22         27.2410    31.8360    55.5330 ha         1 214       0.102500
     63 H23         29.4260    31.4340    56.5770 ha         1 214       0.124000
     64 H25         31.2120    30.9880    52.6630 ha         1 214       0.124000
     65 H321        26.7790    32.2510    51.8240 hc         1 214       0.055200
     66 H322        26.0580    32.6380    53.3580 hc         1 214       0.055200
     67 H351        24.5270    29.2500    53.9860 hc         1 214       0.063200
     68 H352        25.7100    30.1850    54.8520 hc         1 214       0.063200
     69 H40         29.1880    28.0580    48.0050 ha         1 214       0.093000
     70 H41         29.2130    26.7520    50.1480 ha         1 214       0.118000
     71 H44         26.5030    30.9550    49.7890 ha         1 214       0.130000
     72 H45         27.8360    30.1530    47.8280 ha         1 214       0.095000
     73 H61         32.4880    29.4670    53.8830 ha         1 214       0.077000
     74 H62         36.8340    27.9360    54.9390 ha         1 214       0.071000
     75 H711        38.5070    28.6100    56.5860 hc         1 214       0.026700
     76 H712        38.2630    30.1050    57.4980 hc         1 214       0.026700
     77 H713        37.6810    28.5620    58.1510 hc         1 214       0.026700
     78 H63         34.6100    28.3300    53.8720 ha         1 214       0.076000
     79 H69         31.5490    32.3270    56.9630 ha         1 214       0.159000
     80 C71         37.8010    29.1460    57.2310 c3         1 214      -0.123400
@<TRIPOS>BOND
     1     1     2 ar  
     2     1     6 ar  
     3     1    52 1   
     4     2     3 ar  
     5     2    53 1   
     6     3     4 ar  
     7     3    54 1   
     8     4     5 ar  
     9     4    19 1   
    10     5     6 ar  
    11     5    55 1   
    12     6    56 1   
    13     7     8 ar  
    14     7    12 ar  
    15     7    57 1   
    16     8     9 ar  
    17     8    22 1   
    18     9    10 ar  
    19     9    58 1   
    20    10    11 ar  
    21    10    59 1   
    22    11    12 ar  
    23    11    31 1   
    24    12    60 1   
    25    13    14 ar  
    26    13    18 ar  
    27    13    61 1   
    28    14    15 ar  
    29    14    21 1   
    30    15    16 ar  
    31    15    62 1   
    32    16    17 ar  
    33    16    63 1   
    34    17    18 ar  
    35    17    45 1   
    36    18    64 1   
    37    19    20 1   
    38    19    21 1   
    39    19    22 1   
    40    20    26 1   
    41    20    30 1   
    42    21    65 1   
    43    21    66 1   
    44    22    67 1   
    45    22    68 1   
    46    23    24 ar  
    47    23    28 ar  
    48    23    69 1   
    49    24    25 ar  
    50    24    70 1   
    51    25    26 ar  
    52    25    29 1   
    53    26    27 ar  
    54    27    28 ar  
    55    27    71 1   
    56    28    72 1   
    57    29    30 2   
    58    31    32 1   
    59    31    33 1   
    60    31    34 1   
    61    34    35 1   
    62    34    36 1   
    63    34    37 1   
    64    38    41 ar  
    65    38    45 ar  
    66    38    73 1   
    67    39    40 ar  
    68    39    44 ar  
    69    39    74 1   
    70    40    41 ar  
    71    40    78 1   
    72    41    42 ar  
    73    42    43 ar  
    74    42    47 ar  
    75    43    44 ar  
    76    44    80 1   
    77    45    46 ar  
    78    46    47 ar  
    79    46    79 1   
    80    47    48 1   
    81    48    49 1   
    82    48    50 1   
    83    48    51 1   
    84    75    80 1   
    85    76    80 1   
    86    77    80 1   
@<TRIPOS>SUBSTRUCTURE
     1 214         1 TEMP              0 ****  ****    0 ROOT
