@<TRIPOS>MOLECULE
216
   60    62     1     0     0
SMALL
abcg2


@<TRIPOS>ATOM
      1 O1          -8.2900    14.3080    27.8850 o          1 216      -0.595000
      2 O4         -10.1390    19.6800    26.8980 oh         1 216      -0.671000
      3 O5         -11.9070    18.7420    28.7660 oh         1 216      -0.671000
      4 N2          -8.9790    16.1720    26.7600 n          1 216      -0.425300
      5 N7          -9.5210    15.8680    29.0120 n          1 216      -0.425300
      6 C1          -8.8930    15.3850    27.8860 c          1 216       0.619000
      7 C3          -8.9080    17.6420    26.8020 c3         1 216       0.116700
      8 C4         -10.2490    18.2820    27.1600 c3         1 216       0.147300
      9 C5         -10.6670    18.0480    28.5980 c3         1 216       0.147300
     10 C6         -10.8160    16.5680    28.9670 c3         1 216       0.116700
     11 C22         -9.6120    15.9100    24.4110 c2         1 216      -0.236200
     12 C23         -9.3010    16.5220    23.2750 c2         1 216      -0.309000
     13 C31         -7.7250    18.1640    27.6380 c3         1 216      -0.048600
     14 C32         -6.4000    17.6980    27.0980 ca         1 216      -0.086300
     15 C33         -5.6830    16.6880    27.7370 ca         1 216      -0.103750
     16 C34         -4.4790    16.2240    27.2130 ca         1 216      -0.109250
     17 C35         -3.9740    16.7700    26.0380 ca         1 216      -0.111000
     18 C36         -4.6770    17.7850    25.3950 ca         1 216      -0.109250
     19 C37         -5.8790    18.2430    25.9220 ca         1 216      -0.103750
     20 C61        -11.8780    15.8180    28.1430 c3         1 216      -0.048600
     21 C62        -12.1690    14.4560    28.7160 ca         1 216      -0.086300
     22 C63        -12.9410    14.3220    29.8720 ca         1 216      -0.103750
     23 C64        -13.1630    13.0730    30.4410 ca         1 216      -0.109250
     24 C65        -12.6140    11.9340    29.8590 ca         1 216      -0.111000
     25 C66        -11.8510    12.0540    28.7020 ca         1 216      -0.109250
     26 C67        -11.6340    13.3070    28.1360 ca         1 216      -0.103750
     27 C71         -9.1840    15.2460    30.2970 c3         1 216       0.128200
     28 C72         -8.9670    16.2820    31.3580 c2         1 216      -0.236200
     29 C73         -9.6610    16.3480    32.4890 c2         1 216      -0.309000
     30 HO4        -10.9110    20.0980    27.3060 ho         1 216       0.457000
     31 HO5        -12.0550    18.8900    29.7080 ho         1 216       0.457000
     32 H3          -8.7250    17.9420    25.7700 h1         1 216       0.066200
     33 H4         -11.0090    17.8500    26.4990 h1         1 216       0.056200
     34 H5          -9.9160    18.4860    29.2610 h1         1 216       0.056200
     35 H6         -11.1640    16.5710    30.0000 h1         1 216       0.066200
     36 H211        -7.6130    15.8610    25.1740 h1         1 216       0.066700
     37 H212        -8.6070    14.4820    25.6350 h1         1 216       0.066700
     38 H22        -10.6420    15.6290    24.6170 ha         1 216       0.172500
     39 H231        -8.2800    16.8220    23.0610 ha         1 216       0.164750
     40 H232       -10.0480    16.7400    22.5220 ha         1 216       0.164750
     41 H311        -7.7760    19.2540    27.6230 hc         1 216       0.064950
     42 H312        -7.8290    17.8470    28.6740 hc         1 216       0.064950
     43 H33         -6.0730    16.2570    28.6510 ha         1 216       0.113000
     44 H34         -3.9380    15.4370    27.7240 ha         1 216       0.113000
     45 H35         -3.0380    16.4110    25.6280 ha         1 216       0.111500
     46 H36         -4.2880    18.2200    24.4820 ha         1 216       0.113000
     47 H37         -6.4230    19.0310    25.4130 ha         1 216       0.113000
     48 H611       -12.7810    16.4300    28.1480 hc         1 216       0.064950
     49 H612       -11.5550    15.7200    27.1080 hc         1 216       0.064950
     50 H63        -13.3670    15.2060    30.3330 ha         1 216       0.113000
     51 H64        -13.7640    12.9890    31.3380 ha         1 216       0.113000
     52 H65        -12.7840    10.9600    30.3010 ha         1 216       0.111500
     53 H66        -11.4220    11.1730    28.2400 ha         1 216       0.113000
     54 H67        -11.0320    13.3960    27.2410 ha         1 216       0.113000
     55 H711        -9.9680    14.5460    30.6020 h1         1 216       0.066700
     56 H712        -8.2720    14.6730    30.1430 h1         1 216       0.066700
     57 H72         -8.1870    17.0090    31.1510 ha         1 216       0.172500
     58 H731       -10.4530    15.6380    32.7030 ha         1 216       0.164750
     59 H732        -9.4590    17.1040    33.2370 ha         1 216       0.164750
     60 C21         -8.6200    15.5590    25.4770 c3         1 216       0.128200
@<TRIPOS>BOND
     1     1     6 2   
     2     2     8 1   
     3     2    30 1   
     4     3     9 1   
     5     3    31 1   
     6     4     6 1   
     7     4     7 1   
     8     4    60 1   
     9     5     6 1   
    10     5    10 1   
    11     5    27 1   
    12     7     8 1   
    13     7    13 1   
    14     7    32 1   
    15     8     9 1   
    16     8    33 1   
    17     9    10 1   
    18     9    34 1   
    19    10    20 1   
    20    10    35 1   
    21    11    12 2   
    22    11    38 1   
    23    11    60 1   
    24    12    39 1   
    25    12    40 1   
    26    13    14 1   
    27    13    41 1   
    28    13    42 1   
    29    14    15 ar  
    30    14    19 ar  
    31    15    16 ar  
    32    15    43 1   
    33    16    17 ar  
    34    16    44 1   
    35    17    18 ar  
    36    17    45 1   
    37    18    19 ar  
    38    18    46 1   
    39    19    47 1   
    40    20    21 1   
    41    20    48 1   
    42    20    49 1   
    43    21    22 ar  
    44    21    26 ar  
    45    22    23 ar  
    46    22    50 1   
    47    23    24 ar  
    48    23    51 1   
    49    24    25 ar  
    50    24    52 1   
    51    25    26 ar  
    52    25    53 1   
    53    26    54 1   
    54    27    28 1   
    55    27    55 1   
    56    27    56 1   
    57    28    29 2   
    58    28    57 1   
    59    29    58 1   
    60    29    59 1   
    61    36    60 1   
    62    37    60 1   
@<TRIPOS>SUBSTRUCTURE
     1 216         1 TEMP              0 ****  ****    0 ROOT
