@<TRIPOS>MOLECULE
216
   60    62     1     0     0
SMALL
No Charge or Current Charge


@<TRIPOS>ATOM
      1 O1          -8.2760    14.3170    27.9290 o          1 216      -0.595000
      2 O4         -10.2180    19.7210    26.8840 oh         1 216      -0.671000
      3 O5         -11.9130    18.7990    28.8580 oh         1 216      -0.671000
      4 N2          -8.9380    16.1560    26.7310 n          1 216      -0.425300
      5 N7          -9.5250    15.8580    29.0760 n          1 216      -0.425300
      6 C1          -8.8780    15.3820    27.9130 c          1 216       0.619000
      7 C3          -8.8900    17.6470    26.7910 c3         1 216       0.116700
      8 C4         -10.2520    18.3060    27.1430 c3         1 216       0.147300
      9 C5         -10.6780    18.0870    28.6170 c3         1 216       0.147300
     10 C6         -10.8260    16.5850    28.9860 c3         1 216       0.116700
     11 C22         -9.5990    15.8730    24.3570 c2         1 216      -0.236200
     12 C23         -9.4040    16.7190    23.3330 c2         1 216      -0.309000
     13 C31         -7.6640    18.1850    27.5860 c3         1 216      -0.048600
     14 C32         -6.3370    17.6660    27.0410 ca         1 216      -0.086300
     15 C33         -5.6180    16.6760    27.7380 ca         1 216      -0.103750
     16 C34         -4.4040    16.1880    27.2240 ca         1 216      -0.109250
     17 C35         -3.9010    16.6880    26.0110 ca         1 216      -0.111000
     18 C36         -4.6140    17.6770    25.3120 ca         1 216      -0.109250
     19 C37         -5.8280    18.1650    25.8260 ca         1 216      -0.103750
     20 C61        -11.9070    15.8030    28.1820 c3         1 216      -0.048600
     21 C62        -12.1590    14.4070    28.7410 ca         1 216      -0.086300
     22 C63        -12.8710    14.2450    29.9460 ca         1 216      -0.103750
     23 C64        -13.0900    12.9600    30.4730 ca         1 216      -0.109250
     24 C65        -12.5990    11.8300    29.7980 ca         1 216      -0.111000
     25 C66        -11.8890    11.9860    28.5950 ca         1 216      -0.109250
     26 C67        -11.6700    13.2700    28.0680 ca         1 216      -0.103750
     27 C71         -9.1980    15.2650    30.3940 c3         1 216       0.128200
     28 C72         -9.0040    16.3280    31.4560 c2         1 216      -0.236200
     29 C73         -9.8560    16.5920    32.4600 c2         1 216      -0.309000
     30 HO4        -10.9770    20.0800    27.4010 ho         1 216       0.457000
     31 HO5        -12.0680    18.8020    29.8290 ho         1 216       0.457000
     32 H3          -8.7050    17.9810    25.7610 h1         1 216       0.066200
     33 H4         -11.0120    17.8500    26.4950 h1         1 216       0.056200
     34 H5          -9.8960    18.5060    29.2650 h1         1 216       0.056200
     35 H6         -11.2250    16.6070    30.0080 h1         1 216       0.066200
     36 H211        -7.5860    15.8940    25.1310 h1         1 216       0.066700
     37 H212        -8.5240    14.4500    25.5250 h1         1 216       0.066700
     38 H22        -10.5520    15.3530    24.4740 ha         1 216       0.172500
     39 H231        -8.4600    17.2500    23.1960 ha         1 216       0.164750
     40 H232       -10.1840    16.9110    22.5940 ha         1 216       0.164750
     41 H311        -7.6610    19.2810    27.5450 hc         1 216       0.064950
     42 H312        -7.7610    17.9280    28.6460 hc         1 216       0.064950
     43 H33         -6.0010    16.2770    28.6750 ha         1 216       0.113000
     44 H34         -3.8540    15.4210    27.7660 ha         1 216       0.113000
     45 H35         -2.9620    16.3100    25.6130 ha         1 216       0.111500
     46 H36         -4.2270    18.0650    24.3730 ha         1 216       0.113000
     47 H37         -6.3750    18.9280    25.2770 ha         1 216       0.113000
     48 H611       -12.8460    16.3690    28.1980 hc         1 216       0.064950
     49 H612       -11.6190    15.7390    27.1270 hc         1 216       0.064950
     50 H63        -13.2530    15.1150    30.4760 ha         1 216       0.113000
     51 H64        -13.6400    12.8410    31.4040 ha         1 216       0.113000
     52 H65        -12.7680    10.8360    30.2060 ha         1 216       0.111500
     53 H66        -11.5060    11.1120    28.0730 ha         1 216       0.113000
     54 H67        -11.1130    13.3800    27.1400 ha         1 216       0.113000
     55 H711       -10.0040    14.5780    30.6860 h1         1 216       0.066700
     56 H712        -8.2760    14.6720    30.3270 h1         1 216       0.066700
     57 H72         -8.0780    16.8970    31.3500 ha         1 216       0.172500
     58 H731       -10.7870    16.0360    32.5870 ha         1 216       0.164750
     59 H732        -9.6510    17.3750    33.1920 ha         1 216       0.164750
     60 C21         -8.5820    15.5430    25.4310 c3         1 216       0.128200
@<TRIPOS>BOND
     1     1     6 2   
     2     2     8 1   
     3     2    30 1   
     4     3     9 1   
     5     3    31 1   
     6     4     6 1   
     7     4     7 1   
     8     4    60 1   
     9     5     6 1   
    10     5    10 1   
    11     5    27 1   
    12     7     8 1   
    13     7    13 1   
    14     7    32 1   
    15     8     9 1   
    16     8    33 1   
    17     9    10 1   
    18     9    34 1   
    19    10    20 1   
    20    10    35 1   
    21    11    12 2   
    22    11    38 1   
    23    11    60 1   
    24    12    39 1   
    25    12    40 1   
    26    13    14 1   
    27    13    41 1   
    28    13    42 1   
    29    14    15 ar  
    30    14    19 ar  
    31    15    16 ar  
    32    15    43 1   
    33    16    17 ar  
    34    16    44 1   
    35    17    18 ar  
    36    17    45 1   
    37    18    19 ar  
    38    18    46 1   
    39    19    47 1   
    40    20    21 1   
    41    20    48 1   
    42    20    49 1   
    43    21    22 ar  
    44    21    26 ar  
    45    22    23 ar  
    46    22    50 1   
    47    23    24 ar  
    48    23    51 1   
    49    24    25 ar  
    50    24    52 1   
    51    25    26 ar  
    52    25    53 1   
    53    26    54 1   
    54    27    28 1   
    55    27    55 1   
    56    27    56 1   
    57    28    29 2   
    58    28    57 1   
    59    29    58 1   
    60    29    59 1   
    61    36    60 1   
    62    37    60 1   
@<TRIPOS>SUBSTRUCTURE
     1 216         1 TEMP              0 ****  ****    0 ROOT
