@<TRIPOS>MOLECULE
217
   20    19     1     0     0
SMALL
bcc


@<TRIPOS>ATOM
      1 C1           2.0860     0.7700     0.3250 c3         1 217       0.107400
      2 C2           0.9710    -0.1050    -0.2250 c3         1 217       0.141100
      3 C3          -0.3780     0.3410     0.3320 c3         1 217      -0.108400
      4 C4          -1.5580    -0.4360    -0.2510 c3         1 217      -0.041200
      5 C5          -2.8600     0.0090     0.3340 c2         1 217      -0.170200
      6 C6          -3.8670     0.5410    -0.3500 c2         1 217      -0.217000
      7 O1           3.3000     0.4260    -0.3010 oh         1 217      -0.582800
      8 O2           1.2190    -1.4770    -0.0000 oh         1 217      -0.576800
      9 H11          2.1400     0.6380     1.4170 h1         1 217       0.017700
     10 H12          1.8250     1.8210     0.1470 h1         1 217       0.017700
     11 H2           0.9520     0.0130    -1.3140 h1         1 217       0.084700
     12 H31         -0.3740     0.2430     1.4250 hc         1 217       0.043200
     13 H32         -0.5100     1.4060     0.1230 hc         1 217       0.043200
     14 H41         -1.5770    -0.3170    -1.3380 hc         1 217       0.053700
     15 H42         -1.4210    -1.5020    -0.0500 hc         1 217       0.053700
     16 H5          -2.9640    -0.1140     1.4100 ha         1 217       0.113000
     17 H61         -3.8140     0.6860    -1.4230 ha         1 217       0.111500
     18 H62         -4.7840     0.8480     0.1370 ha         1 217       0.111500
     19 HO1          3.9860     1.0040     0.0430 ho         1 217       0.402000
     20 HO2          1.2100    -1.6320     0.9510 ho         1 217       0.395000
@<TRIPOS>BOND
     1     1     2 1   
     2     1     7 1   
     3     1     9 1   
     4     1    10 1   
     5     2     3 1   
     6     2     8 1   
     7     2    11 1   
     8     3     4 1   
     9     3    12 1   
    10     3    13 1   
    11     4     5 1   
    12     4    14 1   
    13     4    15 1   
    14     5     6 2   
    15     5    16 1   
    16     6    17 1   
    17     6    18 1   
    18     7    19 1   
    19     8    20 1   
@<TRIPOS>SUBSTRUCTURE
     1 217         1 TEMP              0 ****  ****    0 ROOT
