@<TRIPOS>MOLECULE
217
   20    19     1     0     0
SMALL
No Charge or Current Charge


@<TRIPOS>ATOM
      1 C1           2.0740     0.7810     0.4040 c3         1 217       0.130600
      2 C2           0.9280    -0.1170    -0.1360 c3         1 217       0.164300
      3 C3          -0.4620     0.3140     0.3940 c3         1 217      -0.108400
      4 C4          -1.6450    -0.4730    -0.2160 c3         1 217      -0.041200
      5 C5          -2.9820     0.0320     0.2860 c2         1 217      -0.220200
      6 C6          -3.9270     0.6080    -0.4740 c2         1 217      -0.317000
      7 O1           3.3470     0.2910    -0.0510 oh         1 217      -0.645000
      8 O2           1.1950    -1.4740     0.2430 oh         1 217      -0.639000
      9 H11          2.0420     0.7940     1.5020 h1         1 217       0.017700
     10 H12          1.9180     1.8100     0.0540 h1         1 217       0.017700
     11 H2           0.9230    -0.0240    -1.2320 h1         1 217       0.084700
     12 H31         -0.4830     0.2110     1.4870 hc         1 217       0.043200
     13 H32         -0.6050     1.3800     0.1770 hc         1 217       0.043200
     14 H41         -1.5950    -0.3970    -1.3100 hc         1 217       0.053700
     15 H42         -1.5400    -1.5380     0.0260 hc         1 217       0.053700
     16 H5          -3.1460    -0.1120     1.3570 ha         1 217       0.163000
     17 H61         -3.7910     0.7610    -1.5460 ha         1 217       0.161500
     18 H62         -4.8730     0.9470    -0.0480 ha         1 217       0.161500
     19 HO1          4.0300     0.9200     0.2730 ho         1 217       0.441000
     20 HO2          2.1750    -1.5520     0.2020 ho         1 217       0.434000
@<TRIPOS>BOND
     1     1     2 1   
     2     1     7 1   
     3     1     9 1   
     4     1    10 1   
     5     2     3 1   
     6     2     8 1   
     7     2    11 1   
     8     3     4 1   
     9     3    12 1   
    10     3    13 1   
    11     4     5 1   
    12     4    14 1   
    13     4    15 1   
    14     5     6 2   
    15     5    16 1   
    16     6    17 1   
    17     6    18 1   
    18     7    19 1   
    19     8    20 1   
@<TRIPOS>SUBSTRUCTURE
     1 217         1 TEMP              0 ****  ****    0 ROOT
