@<TRIPOS>MOLECULE
218
   38    39     1     0     0
SMALL
bcc


@<TRIPOS>ATOM
      1 CM2          4.6240     2.0440     1.2520 c3         1 218      -0.149400
      2 C2A          3.6430     1.2600     0.4420 ca         1 218       0.746300
      3 N1A          3.1260     1.8470    -0.6330 nb         1 218      -0.718000
      4 C6A          2.1920     1.1570    -1.2780 ca         1 218       0.502200
      5 C5A          1.7650    -0.1010    -0.9110 ca         1 218      -0.488900
      6 C7A          0.6820    -0.8040    -1.6650 c3         1 218       0.089600
      7 N3          -0.5180    -1.0820    -0.8300 na         1 218       0.035900
      8 C2          -0.7700    -2.3700    -0.5440 ca         1 218      -0.041300
      9 C1          -1.8160    -2.7290     0.2620 ca         1 218      -0.133000
     10 C6          -2.6100    -1.7260     0.7870 ca         1 218      -0.018000
     11 C5          -2.3670    -0.3950     0.4780 ca         1 218      -0.087300
     12 CM6         -3.2840     0.6580     1.0330 c3         1 218      -0.053100
     13 CM7         -4.4680     0.8870     0.0990 c3         1 218       0.149400
     14 OM7         -5.2900     1.8760     0.6680 oh         1 218      -0.584800
     15 C4          -1.3050    -0.0790    -0.3700 ca         1 218       0.053400
     16 CM4         -1.0190     1.3250    -0.7780 c3         1 218      -0.086800
     17 C4A          2.4480    -0.6700     0.1860 ca         1 218       0.730200
     18 N4A          2.1980    -1.9210     0.6230 nv         1 218      -0.946500
     19 N3A          3.3530     0.0380     0.8620 nb         1 218      -0.775000
     20 HM21         4.1080     2.5330     2.0820 hc         1 218       0.077367
     21 HM22         5.3890     1.3990     1.6790 hc         1 218       0.077367
     22 HM23         5.0940     2.8190     0.6510 hc         1 218       0.077367
     23 H6A          1.7520     1.6400    -2.1460 h4         1 218       0.025100
     24 H7A1         0.3720    -0.2250    -2.5320 h1         1 218       0.088200
     25 H7A2         1.0140    -1.7680    -2.0500 h1         1 218       0.088200
     26 H2          -0.1180    -3.1050    -0.9900 h4         1 218       0.188000
     27 H1          -1.9940    -3.7720     0.4720 ha         1 218       0.192000
     28 H6          -3.4350    -1.9770     1.4420 ha         1 218       0.184000
     29 HM61        -3.6520     0.3180     2.0030 hc         1 218       0.088200
     30 HM62        -2.7560     1.5950     1.2100 hc         1 218       0.088200
     31 HM71        -4.1010     1.1850    -0.8920 h1         1 218       0.020700
     32 HM72        -5.0020    -0.0630    -0.0340 h1         1 218       0.020700
     33 HOM7        -6.0350     2.0210     0.0790 ho         1 218       0.427000
     34 HM41        -0.2470     1.7680    -0.1470 hc         1 218       0.090367
     35 HM42        -0.6970     1.4030    -1.8140 hc         1 218       0.090367
     36 HM43        -1.9080     1.9400    -0.6800 hc         1 218       0.090367
     37 H4A1         1.8640    -2.6160    -0.0210 hn         1 218       0.431800
     38 H4A2         2.8200    -2.2820     1.3290 hn         1 218       0.431800
@<TRIPOS>BOND
     1     1     2 1   
     2     1    20 1   
     3     1    21 1   
     4     1    22 1   
     5     2     3 ar  
     6     2    19 ar  
     7     3     4 ar  
     8     4     5 ar  
     9     4    23 1   
    10     5     6 1   
    11     5    17 ar  
    12     6     7 1   
    13     6    24 1   
    14     6    25 1   
    15     7     8 1   
    16     7    15 2   
    17     8     9 ar  
    18     8    26 1   
    19     9    10 ar  
    20     9    27 1   
    21    10    11 ar  
    22    10    28 1   
    23    11    12 1   
    24    11    15 ar  
    25    12    13 1   
    26    12    29 1   
    27    12    30 1   
    28    13    14 1   
    29    13    31 1   
    30    13    32 1   
    31    14    33 1   
    32    15    16 1   
    33    16    34 1   
    34    16    35 1   
    35    16    36 1   
    36    17    18 1   
    37    17    19 ar  
    38    18    37 1   
    39    18    38 1   
@<TRIPOS>SUBSTRUCTURE
     1 218         1 TEMP              0 ****  ****    0 ROOT
