@<TRIPOS>MOLECULE
218
   38    39     1     0     0
SMALL
No Charge or Current Charge


@<TRIPOS>ATOM
      1 CM2          4.4760     2.1960     1.3440 c3         1 218      -0.149400
      2 C2A          3.5230     1.3530     0.5170 ca         1 218       0.220300
      3 N1A          3.2390     1.7930    -0.7260 nb         1 218      -0.192000
      4 C6A          2.3890     1.0420    -1.4500 ca         1 218       0.173900
      5 C5A          1.8150    -0.1380    -0.9390 ca         1 218      -0.358300
      6 C7A          0.8440    -0.9490    -1.8080 c3         1 218       0.118900
      7 N3          -0.4910    -1.2010    -1.2080 na         1 218       0.057300
      8 C2          -0.9050    -2.5240    -1.0300 ca         1 218      -0.074000
      9 C1          -1.8770    -2.8520    -0.0720 ca         1 218      -0.115000
     10 C6          -2.5090    -1.8300     0.6520 ca         1 218       0.000000
     11 C5          -2.2190    -0.4790     0.3720 ca         1 218      -0.087300
     12 CM6         -2.9980     0.5980     1.1340 c3         1 218      -0.053100
     13 CM7         -4.3540     0.9190     0.4750 c3         1 218       0.172600
     14 OM7         -5.0290     1.9310     1.2290 oh         1 218      -0.647000
     15 C4          -1.2480    -0.1630    -0.6200 ca         1 218       0.053400
     16 CM4         -1.0190     1.2880    -1.0610 c3         1 218      -0.086800
     17 C4A          2.1940    -0.4990     0.3640 ca         1 218       0.401900
     18 N4A          1.7460    -1.6240     0.9720 nv         1 218      -1.056900
     19 N3A          3.0400     0.2360     1.0960 nb         1 218      -0.249000
     20 HM21         3.9240     2.9190     1.9540 hc         1 218       0.077367
     21 HM22         5.0760     1.5750     2.0200 hc         1 218       0.077367
     22 HM23         5.1720     2.7560     0.7080 hc         1 218       0.077367
     23 H6A          2.1590     1.4000    -2.4530 h4         1 218       0.025100
     24 H7A1         0.6910    -0.4430    -2.7700 h1         1 218       0.088200
     25 H7A2         1.3160    -1.9120    -2.0430 h1         1 218       0.088200
     26 H2          -0.4170    -3.2990    -1.6230 h4         1 218       0.170000
     27 H1          -2.1480    -3.8920     0.1010 ha         1 218       0.174000
     28 H6          -3.2590    -2.0880     1.3980 ha         1 218       0.166000
     29 HM61        -3.1830     0.2640     2.1620 hc         1 218       0.088200
     30 HM62        -2.4130     1.5200     1.2330 hc         1 218       0.088200
     31 HM71        -4.1890     1.2590    -0.5560 h1         1 218       0.020700
     32 HM72        -4.9620     0.0050     0.4360 h1         1 218       0.020700
     33 HOM7        -5.8890     2.0980     0.7810 ho         1 218       0.466000
     34 HM41        -0.3480     1.8080    -0.3670 hc         1 218       0.090367
     35 HM42        -0.5830     1.3570    -2.0640 hc         1 218       0.090367
     36 HM43        -1.9560     1.8540    -1.1060 hc         1 218       0.090367
     37 H4A1         1.2600    -2.3300     0.4320 hn         1 218       0.487000
     38 H4A2         2.1820    -1.9170     1.8430 hn         1 218       0.487000
@<TRIPOS>BOND
     1     1     2 1   
     2     1    20 1   
     3     1    21 1   
     4     1    22 1   
     5     2     3 ar  
     6     2    19 ar  
     7     3     4 ar  
     8     4     5 ar  
     9     4    23 1   
    10     5     6 1   
    11     5    17 ar  
    12     6     7 1   
    13     6    24 1   
    14     6    25 1   
    15     7     8 1   
    16     7    15 2   
    17     8     9 ar  
    18     8    26 1   
    19     9    10 ar  
    20     9    27 1   
    21    10    11 ar  
    22    10    28 1   
    23    11    12 1   
    24    11    15 ar  
    25    12    13 1   
    26    12    29 1   
    27    12    30 1   
    28    13    14 1   
    29    13    31 1   
    30    13    32 1   
    31    14    33 1   
    32    15    16 1   
    33    16    34 1   
    34    16    35 1   
    35    16    36 1   
    36    17    18 1   
    37    17    19 ar  
    38    18    37 1   
    39    18    38 1   
@<TRIPOS>SUBSTRUCTURE
     1 218         1 TEMP              0 ****  ****    0 ROOT
