@<TRIPOS>MOLECULE
219
   38    39     1     0     0
SMALL
abcg2


@<TRIPOS>ATOM
      1 C1          18.6460    25.9220    20.0870 ca         1 219      -0.057000
      2 C2          18.8450    24.7300    19.3950 ca         1 219      -0.192000
      3 C3          17.8980    24.3290    18.4710 ca         1 219      -0.059000
      4 C4          16.7530    25.0970    18.2120 ca         1 219      -0.263600
      5 C5          16.5690    26.3040    18.9200 ca         1 219       0.301100
      6 C6          17.5220    26.7020    19.8570 ca         1 219      -0.205000
      7 C7          15.8460    24.5720    17.1840 c          1 219       0.589500
      8 O8          15.4500    27.0320    18.6830 os         1 219      -0.461500
      9 P9          15.3610    28.6930    18.5910 p5         1 219       1.403800
     10 O10         16.5110    28.9990    17.5060 os         1 219      -0.616400
     11 O11         15.8050    29.3070    19.8740 o          1 219      -0.800000
     12 C12         16.3480    28.5550    16.1420 c3         1 219       0.222600
     13 O17         14.8120    25.0640    16.7730 o          1 219      -0.507100
     14 O19         13.9960    28.9360    18.0470 o          1 219      -0.800000
     15 C21         17.6570    28.5850    15.3650 c6         1 219      -0.059700
     16 C24         18.7280    27.6210    15.9090 c6         1 219      -0.052400
     17 C25         19.5240    28.1780    17.0930 c6         1 219      -0.070900
     18 C26         20.1180    29.5500    16.7710 c6         1 219      -0.063400
     19 C27         19.0250    30.5330    16.3480 c6         1 219      -0.070900
     20 C28         18.2330    29.9960    15.1520 c6         1 219      -0.052400
     21 H1          19.3770    26.2540    20.8140 ha         1 219       0.099000
     22 H2          19.7240    24.1270    19.5780 ha         1 219       0.097000
     23 H3          18.0300    23.4050    17.9200 ha         1 219       0.091000
     24 H6          17.3680    27.6300    20.3870 ha         1 219       0.169000
     25 H7          16.1990    23.6110    16.7620 h4         1 219      -0.052800
     26 H12         15.9550    27.5360    16.1470 h1         1 219       0.033700
     27 H12A        15.6140    29.2020    15.6560 h1         1 219       0.033700
     28 H21         17.3590    28.2100    14.3790 hc         1 219       0.023700
     29 H24         18.2610    26.6720    16.1830 hc         1 219       0.023450
     30 H24A        19.4290    27.4040    15.0960 hc         1 219       0.023450
     31 H25         18.8720    28.2650    17.9620 hc         1 219       0.046700
     32 H25A        20.3170    27.4740    17.3600 hc         1 219       0.046700
     33 H26         20.6620    29.9390    17.6370 hc         1 219       0.019200
     34 H26A        20.8470    29.4510    15.9580 hc         1 219       0.019200
     35 H27         18.3500    30.7050    17.1890 hc         1 219       0.046700
     36 H27A        19.4670    31.4990    16.0870 hc         1 219       0.046700
     37 H28         18.9050    29.9560    14.2880 hc         1 219       0.023450
     38 H28A        17.4260    30.6850    14.8870 hc         1 219       0.023450
@<TRIPOS>BOND
     1     1     2 ar  
     2     1     6 ar  
     3     1    21 1   
     4     2     3 ar  
     5     2    22 1   
     6     3     4 ar  
     7     3    23 1   
     8     4     5 ar  
     9     4     7 1   
    10     5     6 ar  
    11     5     8 1   
    12     6    24 1   
    13     7    13 2   
    14     7    25 1   
    15     8     9 1   
    16     9    10 1   
    17     9    11 1   
    18     9    14 1   
    19    10    12 1   
    20    12    15 1   
    21    12    26 1   
    22    12    27 1   
    23    15    16 1   
    24    15    20 1   
    25    15    28 1   
    26    16    17 1   
    27    16    29 1   
    28    16    30 1   
    29    17    18 1   
    30    17    31 1   
    31    17    32 1   
    32    18    19 1   
    33    18    33 1   
    34    18    34 1   
    35    19    20 1   
    36    19    35 1   
    37    19    36 1   
    38    20    37 1   
    39    20    38 1   
@<TRIPOS>SUBSTRUCTURE
     1 219         1 TEMP              0 ****  ****    0 ROOT
