@<TRIPOS>MOLECULE
219
   38    39     1     0     0
SMALL
No Charge or Current Charge


@<TRIPOS>ATOM
      1 C1          18.7540    25.8110    20.0200 ca         1 219      -0.057000
      2 C2          18.7030    24.4240    19.8380 ca         1 219      -0.192000
      3 C3          17.6330    23.8460    19.1410 ca         1 219      -0.059000
      4 C4          16.5980    24.6500    18.6170 ca         1 219      -0.263600
      5 C5          16.6420    26.0540    18.8030 ca         1 219       0.301100
      6 C6          17.7300    26.6200    19.5060 ca         1 219      -0.205000
      7 C7          15.4880    23.9510    17.8740 c          1 219       0.589500
      8 O8          15.6390    26.8290    18.2800 os         1 219      -0.461500
      9 P9          15.4080    28.4230    18.3790 p5         1 219       1.403800
     10 O10         16.5850    28.8960    17.3840 os         1 219      -0.616400
     11 O11         15.6320    28.9460    19.7600 o          1 219      -0.800000
     12 C12         16.3870    28.7320    15.9760 c3         1 219       0.222600
     13 O17         14.5230    24.4970    17.3510 o          1 219      -0.507100
     14 O19         14.0700    28.8280    17.8530 o          1 219      -0.800000
     15 C21         17.6990    28.9880    15.1590 c6         1 219      -0.059700
     16 C24         18.8430    27.9650    15.4350 c6         1 219      -0.052400
     17 C25         19.6570    28.2830    16.7150 c6         1 219      -0.070900
     18 C26         20.1890    29.7360    16.7030 c6         1 219      -0.063400
     19 C27         19.0380    30.7530    16.5170 c6         1 219      -0.070900
     20 C28         18.2260    30.4530    15.2290 c6         1 219      -0.052400
     21 H1          19.5870    26.2600    20.5570 ha         1 219       0.099000
     22 H2          19.4960    23.7940    20.2350 ha         1 219       0.097000
     23 H3          17.6110    22.7660    19.0060 ha         1 219       0.091000
     24 H6          17.8060    27.6910    19.6560 ha         1 219       0.169000
     25 H7          15.5900    22.8450    17.8140 h4         1 219      -0.052800
     26 H12         16.0390    27.7140    15.7520 h1         1 219       0.033700
     27 H12A        15.6190    29.4300    15.6180 h1         1 219       0.033700
     28 H21         17.3810    28.8230    14.1200 hc         1 219       0.023700
     29 H24         18.4330    26.9480    15.4970 hc         1 219       0.023450
     30 H24A        19.5290    27.9610    14.5760 hc         1 219       0.023450
     31 H25         19.0400    28.1260    17.6060 hc         1 219       0.046700
     32 H25A        20.4980    27.5810    16.8010 hc         1 219       0.046700
     33 H26         20.7230    29.9450    17.6400 hc         1 219       0.019200
     34 H26A        20.9220    29.8540    15.8920 hc         1 219       0.019200
     35 H27         18.3810    30.7400    17.3960 hc         1 219       0.046700
     36 H27A        19.4510    31.7700    16.4620 hc         1 219       0.046700
     37 H28         18.8700    30.6400    14.3580 hc         1 219       0.023450
     38 H28A        17.3900    31.1600    15.1420 hc         1 219       0.023450
@<TRIPOS>BOND
     1     1     2 ar  
     2     1     6 ar  
     3     1    21 1   
     4     2     3 ar  
     5     2    22 1   
     6     3     4 ar  
     7     3    23 1   
     8     4     5 ar  
     9     4     7 1   
    10     5     6 ar  
    11     5     8 1   
    12     6    24 1   
    13     7    13 2   
    14     7    25 1   
    15     8     9 1   
    16     9    10 1   
    17     9    11 1   
    18     9    14 1   
    19    10    12 1   
    20    12    15 1   
    21    12    26 1   
    22    12    27 1   
    23    15    16 1   
    24    15    20 1   
    25    15    28 1   
    26    16    17 1   
    27    16    29 1   
    28    16    30 1   
    29    17    18 1   
    30    17    31 1   
    31    17    32 1   
    32    18    19 1   
    33    18    33 1   
    34    18    34 1   
    35    19    20 1   
    36    19    35 1   
    37    19    36 1   
    38    20    37 1   
    39    20    38 1   
@<TRIPOS>SUBSTRUCTURE
     1 219         1 TEMP              0 ****  ****    0 ROOT
