@<TRIPOS>MOLECULE
21A
   38    41     1     0     0
SMALL
bcc


@<TRIPOS>ATOM
      1 O01         -5.5460    -1.1750    -0.1330 oh         1 21A      -0.628300
      2 C02         -4.2100    -1.1330    -0.0700 ca         1 21A       0.584600
      3 C03         -3.5320    -2.3650    -0.0750 ca         1 21A       0.018800
      4 O04         -4.1660    -3.5490    -0.1250 oh         1 21A      -0.485100
      5 C05         -2.1580    -2.3140    -0.0460 ca         1 21A      -0.110000
      6 C06         -1.4880    -1.0850     0.0010 cp         1 21A      -0.146300
      7 C07         -0.0130    -1.0780    -0.0550 cp         1 21A      -0.008000
      8 C08          0.7320    -1.8580     0.8280 ca         1 21A      -0.118500
      9 C09          2.1150    -1.8700     0.7710 ca         1 21A      -0.094500
     10 C10          2.7850    -1.1040    -0.1790 ca         1 21A      -0.142500
     11 C11          4.2380    -1.0910    -0.2620 cc         1 21A       0.459000
     12 N12          5.0920    -1.7040     0.5630 na         1 21A      -0.163400
     13 N13          6.3290    -1.4620     0.1670 nc         1 21A      -0.202800
     14 N14          6.2370    -0.7240    -0.8670 nd         1 21A      -0.039000
     15 N15          4.9650    -0.4720    -1.1660 nd         1 21A      -0.386000
     16 C16          2.0450    -0.3340    -1.0770 ca         1 21A      -0.094500
     17 C17          0.6650    -0.3230    -1.0130 ca         1 21A      -0.118500
     18 C18         -2.2600     0.0730     0.0540 cq         1 21A       0.494800
     19 N19         -3.5960     0.0160     0.0010 nb         1 21A      -0.737000
     20 C20         -1.6890     1.4300     0.1880 cq         1 21A      -0.163500
     21 C21         -2.1970     2.4780    -0.5780 ca         1 21A      -0.074000
     22 C22         -1.6880     3.7620    -0.4630 ca         1 21A      -0.176500
     23 C23         -0.6710     3.9910     0.4430 ca         1 21A       0.147900
     24 F24         -0.1720     5.2320     0.5600 f          1 21A      -0.140900
     25 C25         -0.1550     2.9830     1.2350 ca         1 21A      -0.176500
     26 C26         -0.6700     1.7040     1.1000 ca         1 21A      -0.074000
     27 H2          -5.1220    -3.4290    -0.1570 ho         1 21A       0.449000
     28 H3          -1.5910    -3.2360    -0.0900 ha         1 21A       0.159000
     29 H4           0.2280    -2.4500     1.5810 ha         1 21A       0.145000
     30 H5           2.6560    -2.4810     1.4830 ha         1 21A       0.144500
     31 H6           4.9240    -2.2710     1.3820 hn         1 21A       0.335700
     32 H7           2.5510     0.2540    -1.8310 ha         1 21A       0.144500
     33 H8           0.1070     0.2730    -1.7240 ha         1 21A       0.145000
     34 H9          -2.9960     2.2910    -1.2840 ha         1 21A       0.142000
     35 H10         -2.0760     4.5690    -1.0710 ha         1 21A       0.153000
     36 H11          0.6320     3.1900     1.9490 ha         1 21A       0.153000
     37 H12         -0.2760     0.9180     1.7290 ha         1 21A       0.142000
     38 H13         -5.8970    -0.2740    -0.1230 ho         1 21A       0.458000
@<TRIPOS>BOND
     1     1     2 1   
     2     1    38 1   
     3     2     3 ar  
     4     2    19 ar  
     5     3     4 1   
     6     3     5 ar  
     7     4    27 1   
     8     5     6 ar  
     9     5    28 1   
    10     6     7 1   
    11     6    18 2   
    12     7     8 ar  
    13     7    17 ar  
    14     8     9 ar  
    15     8    29 1   
    16     9    10 ar  
    17     9    30 1   
    18    10    11 1   
    19    10    16 ar  
    20    11    12 1   
    21    11    15 2   
    22    12    13 1   
    23    12    31 1   
    24    13    14 2   
    25    14    15 1   
    26    16    17 ar  
    27    16    32 1   
    28    17    33 1   
    29    18    19 1   
    30    18    20 1   
    31    20    21 1   
    32    20    26 2   
    33    21    22 ar  
    34    21    34 1   
    35    22    23 ar  
    36    22    35 1   
    37    23    24 1   
    38    23    25 ar  
    39    25    26 ar  
    40    25    36 1   
    41    26    37 1   
@<TRIPOS>SUBSTRUCTURE
     1 21A         1 TEMP              0 ****  ****    0 ROOT
