@<TRIPOS>MOLECULE
21A
   38    41     1     0     0
SMALL
No Charge or Current Charge


@<TRIPOS>ATOM
      1 O01         -5.5510    -1.1280    -0.2900 oh         1 21A      -0.667300
      2 C02         -4.2140    -1.1820    -0.1560 ca         1 21A       0.519300
      3 C03         -3.5380    -2.4150     0.0420 ca         1 21A       0.084100
      4 O04         -4.2150    -3.6110     0.1050 oh         1 21A      -0.524100
      5 C05         -2.1420    -2.3930     0.1290 ca         1 21A      -0.092000
      6 C06         -1.4900    -1.1400     0.0470 cp         1 21A      -0.081000
      7 C07          0.0050    -1.1430    -0.0320 cp         1 21A      -0.008000
      8 C08          0.7830    -1.9740     0.8090 ca         1 21A      -0.100500
      9 C09          2.1870    -1.9740     0.7380 ca         1 21A      -0.076500
     10 C10          2.8600    -1.1410    -0.1830 ca         1 21A      -0.142500
     11 C11          4.3290    -1.1280    -0.2690 cc         1 21A       0.459000
     12 N12          5.1910    -1.8730     0.4840 na         1 21A      -0.213700
     13 N13          6.4770    -1.6090     0.1400 nc         1 21A      -0.202800
     14 N14          6.3810    -0.7160    -0.8080 nd         1 21A      -0.039000
     15 N15          5.0710    -0.4010    -1.0810 nd         1 21A      -0.386000
     16 C16          2.0910    -0.3140    -1.0300 ca         1 21A      -0.076500
     17 C17          0.6880    -0.3170    -0.9550 ca         1 21A      -0.100500
     18 C18         -2.2940     0.1060    -0.0820 cq         1 21A       0.429500
     19 N19         -3.6340     0.0190    -0.2390 nb         1 21A      -0.737000
     20 C20         -1.7670     1.5080     0.1140 cq         1 21A      -0.163500
     21 C21         -2.3340     2.5960    -0.5910 ca         1 21A      -0.056000
     22 C22         -1.8410     3.9000    -0.4090 ca         1 21A      -0.158500
     23 C23         -0.7840     4.1320     0.4800 ca         1 21A       0.183000
     24 F24         -0.3130     5.3860     0.6530 f          1 21A      -0.176000
     25 C25         -0.2200     3.0690     1.1950 ca         1 21A      -0.158500
     26 C26         -0.7090     1.7630     1.0180 ca         1 21A      -0.056000
     27 H2          -5.1750    -3.4140     0.0020 ho         1 21A       0.488000
     28 H3          -1.5830    -3.3220     0.2120 ha         1 21A       0.141000
     29 H4           0.2930    -2.6160     1.5380 ha         1 21A       0.127000
     30 H5           2.7410    -2.6260     1.4100 ha         1 21A       0.126500
     31 H6           4.9490    -2.5390     1.2060 hn         1 21A       0.386000
     32 H7           2.5770     0.3380    -1.7540 ha         1 21A       0.126500
     33 H8           0.1240     0.3250    -1.6270 ha         1 21A       0.127000
     34 H9          -3.1520     2.4390    -1.2920 ha         1 21A       0.124000
     35 H10         -2.2770     4.7300    -0.9590 ha         1 21A       0.135000
     36 H11          0.5940     3.2570     1.8910 ha         1 21A       0.135000
     37 H12         -0.2650     0.9580     1.6000 ha         1 21A       0.124000
     38 H13         -5.7150    -0.1700    -0.4120 ho         1 21A       0.497000
@<TRIPOS>BOND
     1     1     2 1   
     2     1    38 1   
     3     2     3 ar  
     4     2    19 ar  
     5     3     4 1   
     6     3     5 ar  
     7     4    27 1   
     8     5     6 ar  
     9     5    28 1   
    10     6     7 1   
    11     6    18 2   
    12     7     8 ar  
    13     7    17 ar  
    14     8     9 ar  
    15     8    29 1   
    16     9    10 ar  
    17     9    30 1   
    18    10    11 1   
    19    10    16 ar  
    20    11    12 1   
    21    11    15 2   
    22    12    13 1   
    23    12    31 1   
    24    13    14 2   
    25    14    15 1   
    26    16    17 ar  
    27    16    32 1   
    28    17    33 1   
    29    18    19 1   
    30    18    20 1   
    31    20    21 1   
    32    20    26 2   
    33    21    22 ar  
    34    21    34 1   
    35    22    23 ar  
    36    22    35 1   
    37    23    24 1   
    38    23    25 ar  
    39    25    26 ar  
    40    25    36 1   
    41    26    37 1   
@<TRIPOS>SUBSTRUCTURE
     1 21A         1 TEMP              0 ****  ****    0 ROOT
