@<TRIPOS>MOLECULE
21B
   41    43     1     0     0
SMALL
bcc


@<TRIPOS>ATOM
      1 C16          5.1940     2.6740    -1.0430 c3         1 21B       0.145100
      2 N            4.4760     1.7820    -0.1570 n7         1 21B      -0.804200
      3 C15          3.0380     1.9210    -0.2690 c3         1 21B       0.157800
      4 C14          2.3200     0.9710     0.6840 c3         1 21B      -0.049200
      5 C13          0.8410     1.1850     0.6470 c2         1 21B      -0.147200
      6 C4          -0.1250     0.2750     0.4820 ce         1 21B      -0.011400
      7 C3           0.1180    -1.1900     0.4240 ca         1 21B      -0.041800
      8 C17          0.8790    -1.7550     1.4550 ca         1 21B      -0.117000
      9 C18          1.1380    -3.1120     1.5160 ca         1 21B      -0.132000
     10 C            0.6240    -3.9450     0.5310 ca         1 21B      -0.124000
     11 C5          -1.5390     0.7150     0.4060 ca         1 21B      -0.041800
     12 C10         -2.1690     1.3190     1.4900 ca         1 21B      -0.117000
     13 C9          -3.4920     1.7340     1.3950 ca         1 21B      -0.132000
     14 C8          -4.1910     1.5430     0.2110 ca         1 21B      -0.124000
     15 C7          -3.5610     0.9440    -0.8740 ca         1 21B      -0.133000
     16 C6          -2.2380     0.5280    -0.7900 ca         1 21B      -0.058800
     17 C11         -1.5310    -0.1160    -1.9440 c3         1 21B      -0.026100
     18 C12         -1.2840    -1.6050    -1.7250 c3         1 21B      -0.026100
     19 C2          -0.4180    -2.0330    -0.5600 ca         1 21B      -0.058800
     20 C1          -0.1420    -3.4010    -0.4840 ca         1 21B      -0.133000
     21 H1           6.2670     2.5050    -0.9500 h1         1 21B       0.028700
     22 H2           4.9270     2.5680    -2.1040 h1         1 21B       0.028700
     23 H3           5.0000     3.7110    -0.7610 h1         1 21B       0.028700
     24 H4           4.7280     0.8270    -0.3830 hn         1 21B       0.349800
     25 H6           2.7730     2.9540    -0.0190 h1         1 21B       0.030700
     26 H7           2.6720     1.7510    -1.2950 h1         1 21B       0.030700
     27 H8           2.5750    -0.0610     0.4340 hc         1 21B       0.057700
     28 H9           2.6930     1.1530     1.6970 hc         1 21B       0.057700
     29 H10          0.5260     2.2230     0.7280 ha         1 21B       0.123000
     30 H11          1.2600    -1.1090     2.2360 ha         1 21B       0.132500
     31 H12          1.7260    -3.5160     2.3300 ha         1 21B       0.131000
     32 H13          0.8150    -5.0100     0.5550 ha         1 21B       0.130000
     33 H14         -1.6220     1.4580     2.4140 ha         1 21B       0.132500
     34 H15         -3.9730     2.2020     2.2440 ha         1 21B       0.131000
     35 H16         -5.2210     1.8630     0.1280 ha         1 21B       0.130000
     36 H17         -4.1040     0.8080    -1.8020 ha         1 21B       0.127000
     37 H18         -2.1290    -0.0070    -2.8520 hc         1 21B       0.049200
     38 H19         -0.5820     0.3940    -2.1340 hc         1 21B       0.049200
     39 H20         -2.2530    -2.1030    -1.6240 hc         1 21B       0.049200
     40 H21         -0.8430    -2.0140    -2.6380 hc         1 21B       0.049200
     41 H22         -0.5470    -4.0540    -1.2490 ha         1 21B       0.127000
@<TRIPOS>BOND
     1     1     2 1   
     2     1    21 1   
     3     1    22 1   
     4     1    23 1   
     5     2     3 1   
     6     2    24 1   
     7     3     4 1   
     8     3    25 1   
     9     3    26 1   
    10     4     5 1   
    11     4    27 1   
    12     4    28 1   
    13     5     6 2   
    14     5    29 1   
    15     6     7 1   
    16     6    11 1   
    17     7     8 ar  
    18     7    19 ar  
    19     8     9 ar  
    20     8    30 1   
    21     9    10 ar  
    22     9    31 1   
    23    10    20 ar  
    24    10    32 1   
    25    11    12 ar  
    26    11    16 ar  
    27    12    13 ar  
    28    12    33 1   
    29    13    14 ar  
    30    13    34 1   
    31    14    15 ar  
    32    14    35 1   
    33    15    16 ar  
    34    15    36 1   
    35    16    17 1   
    36    17    18 1   
    37    17    37 1   
    38    17    38 1   
    39    18    19 1   
    40    18    39 1   
    41    18    40 1   
    42    19    20 ar  
    43    20    41 1   
@<TRIPOS>SUBSTRUCTURE
     1 21B         1 TEMP              0 ****  ****    0 ROOT
