@<TRIPOS>MOLECULE
21B
   41    43     1     0     0
SMALL
No Charge or Current Charge


@<TRIPOS>ATOM
      1 C16          5.4240     2.8020    -0.8440 c3         1 21B       0.145100
      2 N            4.5700     1.7720    -0.2210 n7         1 21B      -0.859400
      3 C15          3.1230     2.0630    -0.2430 c3         1 21B       0.157800
      4 C14          2.3310     0.9330     0.4480 c3         1 21B      -0.049200
      5 C13          0.8310     1.1840     0.4520 c2         1 21B      -0.197200
      6 C4          -0.1610     0.2620     0.4290 ce         1 21B      -0.011400
      7 C3           0.0800    -1.2150     0.4310 ca         1 21B      -0.041800
      8 C17          0.8840    -1.7380     1.4680 ca         1 21B      -0.099000
      9 C18          1.1550    -3.1110     1.5570 ca         1 21B      -0.114000
     10 C            0.6130    -3.9880     0.6110 ca         1 21B      -0.106000
     11 C5          -1.5760     0.7010     0.3750 ca         1 21B      -0.041800
     12 C10         -2.1620     1.3660     1.4680 ca         1 21B      -0.099000
     13 C9          -3.5010     1.7870     1.4010 ca         1 21B      -0.114000
     14 C8          -4.2530     1.5500     0.2380 ca         1 21B      -0.106000
     15 C7          -3.6640     0.8960    -0.8580 ca         1 21B      -0.115000
     16 C6          -2.3220     0.4730    -0.7910 ca         1 21B      -0.058800
     17 C11         -1.6560    -0.2200    -1.9670 c3         1 21B      -0.026100
     18 C12         -1.4040    -1.7160    -1.6970 c3         1 21B      -0.026100
     19 C2          -0.4850    -2.1110    -0.5260 ca         1 21B      -0.058800
     20 C1          -0.2010    -3.4890    -0.4160 ca         1 21B      -0.115000
     21 H1           6.4820     2.5160    -0.7800 h1         1 21B       0.028700
     22 H2           5.1700     2.9330    -1.9040 h1         1 21B       0.028700
     23 H3           5.3020     3.7700    -0.3380 h1         1 21B       0.028700
     24 H4           4.7240     0.8860    -0.7190 hn         1 21B       0.405000
     25 H6           2.9180     3.0100     0.2760 h1         1 21B       0.030700
     26 H7           2.7680     2.1650    -1.2780 h1         1 21B       0.030700
     27 H8           2.5550    -0.0110    -0.0640 hc         1 21B       0.057700
     28 H9           2.6900     0.8280     1.4790 hc         1 21B       0.057700
     29 H10          0.5630     2.2410     0.4470 ha         1 21B       0.173000
     30 H11          1.2970    -1.0710     2.2210 ha         1 21B       0.114500
     31 H12          1.7790    -3.4930     2.3620 ha         1 21B       0.113000
     32 H13          0.8180    -5.0540     0.6760 ha         1 21B       0.112000
     33 H14         -1.5810     1.5500     2.3690 ha         1 21B       0.114500
     34 H15         -3.9550     2.2970     2.2480 ha         1 21B       0.113000
     35 H16         -5.2900     1.8760     0.1840 ha         1 21B       0.112000
     36 H17         -4.2500     0.7200    -1.7580 ha         1 21B       0.109000
     37 H18         -2.2800    -0.1280    -2.8640 hc         1 21B       0.049200
     38 H19         -0.7060     0.2700    -2.2160 hc         1 21B       0.049200
     39 H20         -2.3810    -2.1950    -1.5510 hc         1 21B       0.049200
     40 H21         -1.0010    -2.1500    -2.6190 hc         1 21B       0.049200
     41 H22         -0.6220    -4.1860    -1.1380 ha         1 21B       0.109000
@<TRIPOS>BOND
     1     1     2 1   
     2     1    21 1   
     3     1    22 1   
     4     1    23 1   
     5     2     3 1   
     6     2    24 1   
     7     3     4 1   
     8     3    25 1   
     9     3    26 1   
    10     4     5 1   
    11     4    27 1   
    12     4    28 1   
    13     5     6 2   
    14     5    29 1   
    15     6     7 1   
    16     6    11 1   
    17     7     8 ar  
    18     7    19 ar  
    19     8     9 ar  
    20     8    30 1   
    21     9    10 ar  
    22     9    31 1   
    23    10    20 ar  
    24    10    32 1   
    25    11    12 ar  
    26    11    16 ar  
    27    12    13 ar  
    28    12    33 1   
    29    13    14 ar  
    30    13    34 1   
    31    14    15 ar  
    32    14    35 1   
    33    15    16 ar  
    34    15    36 1   
    35    16    17 1   
    36    17    18 1   
    37    17    37 1   
    38    17    38 1   
    39    18    19 1   
    40    18    39 1   
    41    18    40 1   
    42    19    20 ar  
    43    20    41 1   
@<TRIPOS>SUBSTRUCTURE
     1 21B         1 TEMP              0 ****  ****    0 ROOT
