@<TRIPOS>MOLECULE
21C
   46    47     1     0     0
SMALL
No Charge or Current Charge


@<TRIPOS>ATOM
      1 C13          7.2250     6.0510    25.0940 c6         1 21C       0.234500
      2 C17          9.0760     7.3160    27.5800 c3         1 21C      -0.354400
      3 C20          6.0030     5.6600    24.2300 c6         1 21C      -0.113400
      4 C21          6.4040     4.6810    23.1030 c6         1 21C       0.102500
      5 C02          6.1360    10.9740    21.3660 ca         1 21C       0.107000
      6 C03          5.7860     9.9860    20.4220 ca         1 21C       0.144000
      7 Cl2          4.2470    10.0550    19.5610 cl         1 21C      -0.172000
      8 C05          6.6660     8.9270    20.1520 ca         1 21C      -0.151000
      9 C06          7.8960     8.8400    20.8240 ca         1 21C       0.312000
     10 N07          8.7810     7.7830    20.5740 nu         1 21C      -0.964200
     11 C08          8.4210     6.3890    20.1370 c3         1 21C       0.146800
     12 N10          7.4850     5.2700    22.2710 n          1 21C      -0.410800
     13 C11          8.7000     5.5960    23.0610 c6         1 21C       0.102500
     14 C12          8.3550     6.6030    24.1840 c6         1 21C      -0.113400
     15 N14          6.7920     7.0390    26.0980 n7         1 21C      -0.907300
     16 S15          7.3190     6.9340    27.6770 s6         1 21C       1.224100
     17 O16          6.6160     7.9950    28.3990 o          1 21C      -0.536000
     18 C18          9.4040     8.7440    27.0710 c3         1 21C      -0.064100
     19 O19          7.1430     5.5370    28.0790 o          1 21C      -0.536000
     20 O22          6.1510     5.5710    20.4260 o          1 21C      -0.597100
     21 C23          8.2540     9.8410    21.7680 ca         1 21C       0.056100
     22 O24          9.4590     9.7860    22.4300 oh         1 21C      -0.557100
     23 C25          7.3700    10.9010    22.0350 ca         1 21C      -0.148000
     24 H131         7.5840     5.1340    25.5890 h1         1 21C       0.075700
     25 H171         9.4520     7.1940    28.6020 h1         1 21C       0.098700
     26 H172         9.5350     6.5480    26.9500 h1         1 21C       0.098700
     27 H201         5.2310     5.2010    24.8610 hc         1 21C       0.061200
     28 H202         5.5530     6.5600    23.7870 hc         1 21C       0.061200
     29 H211         6.7620     3.7390    23.5430 h1         1 21C       0.060450
     30 H212         5.5210     4.4370    22.4950 h1         1 21C       0.060450
     31 H051         6.3880     8.1780    19.4180 ha         1 21C       0.156000
     32 H071         9.6610     7.8920    21.0870 hn         1 21C       0.498000
     33 H081         8.1080     6.4000    19.0840 h1         1 21C       0.077700
     34 H082         9.2940     5.7250    20.2010 h1         1 21C       0.077700
     35 H111         9.0900     4.6710    23.5100 h1         1 21C       0.060450
     36 H112         9.5030     6.0020    22.4340 h1         1 21C       0.060450
     37 H121         8.0430     7.5530    23.7320 hc         1 21C       0.061200
     38 H122         9.2630     6.8090    24.7620 hc         1 21C       0.061200
     39 H141         7.1210     7.9640    25.8360 hn         1 21C       0.493000
     40 H182        10.4890     8.9050    27.0750 hc         1 21C       0.045033
     41 H183         9.0460     8.9040    26.0470 hc         1 21C       0.045033
     42 H2           8.9500     9.5050    27.7180 hc         1 21C       0.045033
     43 H241         9.5530    10.5860    22.9920 ho         1 21C       0.471000
     44 H251         7.6300    11.6700    22.7580 ha         1 21C       0.130000
     45 C09          7.2530     5.7210    20.9450 c          1 21C       0.571100
     46 Cl1          5.0490    12.3160    21.7260 cl         1 21C      -0.177000
@<TRIPOS>BOND
     1     1     3 1   
     2     1    14 1   
     3     1    15 1   
     4     1    24 1   
     5     2    16 1   
     6     2    18 1   
     7     2    25 1   
     8     2    26 1   
     9     3     4 1   
    10     3    27 1   
    11     3    28 1   
    12     4    12 1   
    13     4    29 1   
    14     4    30 1   
    15     5     6 ar  
    16     5    23 ar  
    17     5    46 1   
    18     6     7 1   
    19     6     8 ar  
    20     8     9 ar  
    21     8    31 1   
    22     9    10 1   
    23     9    21 ar  
    24    10    11 1   
    25    10    32 1   
    26    11    33 1   
    27    11    34 1   
    28    11    45 1   
    29    12    13 1   
    30    12    45 1   
    31    13    14 1   
    32    13    35 1   
    33    13    36 1   
    34    14    37 1   
    35    14    38 1   
    36    15    16 1   
    37    15    39 1   
    38    16    17 2   
    39    16    19 2   
    40    18    40 1   
    41    18    41 1   
    42    18    42 1   
    43    20    45 2   
    44    21    22 1   
    45    21    23 ar  
    46    22    43 1   
    47    23    44 1   
@<TRIPOS>SUBSTRUCTURE
     1 21C         1 TEMP              0 ****  ****    0 ROOT
