@<TRIPOS>MOLECULE
21C
   46    47     1     0     0
SMALL
abcg2


@<TRIPOS>ATOM
      1 C13          7.1920     6.1660    24.9090 c6         1 21C       0.234500
      2 C17          9.0410     7.4920    27.5400 c3         1 21C      -0.354400
      3 C20          5.9890     5.8560    24.0160 c6         1 21C      -0.113400
      4 C21          6.3500     4.8550    22.9200 c6         1 21C       0.102500
      5 C02          6.1300    10.7010    21.7780 ca         1 21C       0.107000
      6 C03          5.7250     9.6670    20.9500 ca         1 21C       0.144000
      7 CL2          4.0940     9.5840    20.3340 cl         1 21C      -0.172000
      8 C05          6.6140     8.6550    20.5950 ca         1 21C      -0.151000
      9 C06          7.9280     8.6590    21.0620 ca         1 21C       0.312000
     10 N07          8.8460     7.6880    20.7440 nu         1 21C      -0.964200
     11 C08          8.4870     6.4260    20.1390 c3         1 21C       0.146800
     12 N10          7.4900     5.3520    22.1520 n          1 21C      -0.410800
     13 C11          8.6780     5.5710    22.9720 c6         1 21C       0.102500
     14 C12          8.3970     6.5960    24.0690 c6         1 21C      -0.113400
     15 N14          6.8060     7.1810    25.9010 n7         1 21C      -0.907300
     16 S15          7.2890     7.1280    27.4560 s6         1 21C       1.224100
     17 O16          6.5780     8.1930    28.1320 o          1 21C      -0.536000
     18 C18          9.4040     8.8670    27.0000 c3         1 21C      -0.064100
     19 O19          7.1170     5.7660    27.9140 o          1 21C      -0.536000
     20 O22          6.3670     5.3220    20.1850 o          1 21C      -0.597100
     21 C23          8.3280     9.7240    21.9020 ca         1 21C       0.056100
     22 O24          9.6200     9.6850    22.3380 oh         1 21C      -0.557100
     23 C25          7.4420    10.7220    22.2520 ca         1 21C      -0.148000
     24 H131         7.4490     5.2650    25.4690 h1         1 21C       0.075700
     25 H171         9.2840     7.3910    28.5990 h1         1 21C       0.098700
     26 H172         9.5380     6.6850    27.0010 h1         1 21C       0.098700
     27 H201         5.1760     5.4580    24.6250 hc         1 21C       0.061200
     28 H202         5.6400     6.7840    23.5520 hc         1 21C       0.061200
     29 H211         6.6200     3.8900    23.3610 h1         1 21C       0.060450
     30 H212         5.5180     4.7010    22.2410 h1         1 21C       0.060450
     31 H051         6.2640     7.8580    19.9560 ha         1 21C       0.156000
     32 H071         9.7150     7.7350    21.2470 hn         1 21C       0.498000
     33 H081         8.1270     6.5760    19.1200 h1         1 21C       0.077700
     34 H082         9.3870     5.8150    20.0810 h1         1 21C       0.077700
     35 H111         8.9410     4.6120    23.4290 h1         1 21C       0.060450
     36 H112         9.5190     5.8690    22.3580 h1         1 21C       0.060450
     37 H121         8.1910     7.5690    23.6200 hc         1 21C       0.061200
     38 H122         9.2840     6.6990    24.6950 hc         1 21C       0.061200
     39 H141         6.6920     8.1250    25.5490 hn         1 21C       0.493000
     40 H182        10.4790     9.0180    27.1080 hc         1 21C       0.045033
     41 H183         9.1560     8.9620    25.9420 hc         1 21C       0.045033
     42 H2           8.8900     9.6530    27.5520 hc         1 21C       0.045033
     43 H241         9.8020    10.4290    22.9280 ho         1 21C       0.471000
     44 H251         7.7670    11.5230    22.9030 ha         1 21C       0.130000
     45 C09          7.3630     5.6410    20.8420 c          1 21C       0.571100
     46 CL1          5.0490    11.9830    22.2550 cl         1 21C      -0.177000
@<TRIPOS>BOND
     1     1     3 1   
     2     1    14 1   
     3     1    15 1   
     4     1    24 1   
     5     2    16 1   
     6     2    18 1   
     7     2    25 1   
     8     2    26 1   
     9     3     4 1   
    10     3    27 1   
    11     3    28 1   
    12     4    12 1   
    13     4    29 1   
    14     4    30 1   
    15     5     6 ar  
    16     5    23 ar  
    17     5    46 1   
    18     6     7 1   
    19     6     8 ar  
    20     8     9 ar  
    21     8    31 1   
    22     9    10 1   
    23     9    21 ar  
    24    10    11 1   
    25    10    32 1   
    26    11    33 1   
    27    11    34 1   
    28    11    45 1   
    29    12    13 1   
    30    12    45 1   
    31    13    14 1   
    32    13    35 1   
    33    13    36 1   
    34    14    37 1   
    35    14    38 1   
    36    15    16 1   
    37    15    39 1   
    38    16    17 2   
    39    16    19 2   
    40    18    40 1   
    41    18    41 1   
    42    18    42 1   
    43    20    45 2   
    44    21    22 1   
    45    21    23 ar  
    46    22    43 1   
    47    23    44 1   
@<TRIPOS>SUBSTRUCTURE
     1 21C         1 TEMP              0 ****  ****    0 ROOT
