@<TRIPOS>MOLECULE
21D
   24    25     1     0     0
SMALL
No Charge or Current Charge


@<TRIPOS>ATOM
      1 OAE         -4.3900    -1.0760    -0.0430 o          1 21D      -0.708700
      2 SAQ         -3.5570     0.1350     0.0270 s6         1 21D       1.269100
      3 OAA         -3.5690     0.9850    -1.1740 o          1 21D      -0.708700
      4 OAB         -3.5860     0.8530     1.3110 o          1 21D      -0.708700
      5 CAM         -1.8090    -0.5390     0.0030 ca         1 21D      -0.218500
      6 CAI         -1.6330    -1.9390    -0.0710 ca         1 21D      -0.054000
      7 CAH         -0.3550    -2.5020    -0.0930 ca         1 21D      -0.155500
      8 CAL          0.7780    -1.6860    -0.0410 ca         1 21D      -0.064000
      9 CAP          0.6620    -0.2770     0.0330 ca         1 21D       0.020500
     10 CAO         -0.6480     0.2990     0.0550 ca         1 21D       0.020500
     11 CAK         -0.7650     1.7080     0.1300 ca         1 21D      -0.064000
     12 CAG          0.3690     2.5240     0.1810 ca         1 21D      -0.155500
     13 CAJ          1.6460     1.9610     0.1590 ca         1 21D      -0.054000
     14 CAN          1.8220     0.5620     0.0860 ca         1 21D      -0.218500
     15 SAR          3.5710    -0.1120     0.0610 s6         1 21D       1.269100
     16 OAF          3.5830    -0.9630     1.2620 o          1 21D      -0.708700
     17 OAD          3.6000    -0.8300    -1.2230 o          1 21D      -0.708700
     18 OAC          4.4030     1.0990     0.1310 o          1 21D      -0.708700
     19 H1          -2.4880    -2.6090    -0.1130 ha         1 21D       0.119000
     20 H2          -0.2420    -3.5810    -0.1490 ha         1 21D       0.080000
     21 H3           1.7420    -2.1820    -0.0620 ha         1 21D       0.128000
     22 H4          -1.7280     2.2050     0.1500 ha         1 21D       0.128000
     23 H5           0.2550     3.6040     0.2380 ha         1 21D       0.080000
     24 H6           2.5010     2.6320     0.2010 ha         1 21D       0.119000
@<TRIPOS>BOND
     1     1     2 1   
     2     2     3 1   
     3     2     4 1   
     4     2     5 1   
     5     5     6 ar  
     6     5    10 ar  
     7     6     7 ar  
     8     6    19 1   
     9     7     8 ar  
    10     7    20 1   
    11     8     9 ar  
    12     8    21 1   
    13     9    10 ar  
    14     9    14 ar  
    15    10    11 ar  
    16    11    12 ar  
    17    11    22 1   
    18    12    13 ar  
    19    12    23 1   
    20    13    14 ar  
    21    13    24 1   
    22    14    15 1   
    23    15    16 1   
    24    15    17 1   
    25    15    18 1   
@<TRIPOS>SUBSTRUCTURE
     1 21D         1 TEMP              0 ****  ****    0 ROOT
