@<TRIPOS>MOLECULE
21D
   24    25     1     0     0
SMALL
abcg2


@<TRIPOS>ATOM
      1 OAE         -4.3460    -1.0670    -0.0430 o          1 21D      -0.708700
      2 SAQ         -3.4590     0.1050     0.0270 s6         1 21D       1.269100
      3 OAA         -3.5530     0.9710    -1.1620 o          1 21D      -0.708700
      4 OAB         -3.5750     0.8420     1.2980 o          1 21D      -0.708700
      5 CAM         -1.7840    -0.5530     0.0060 ca         1 21D      -0.218500
      6 CAI         -1.6300    -1.9100    -0.0650 ca         1 21D      -0.054000
      7 CAH         -0.3460    -2.4800    -0.0920 ca         1 21D      -0.155500
      8 CAL          0.7680    -1.6930    -0.0480 ca         1 21D      -0.064000
      9 CAP          0.6580    -0.2810     0.0300 ca         1 21D       0.020500
     10 CAO         -0.6440     0.3040     0.0560 ca         1 21D       0.020500
     11 CAK         -0.7540     1.7160     0.1310 ca         1 21D      -0.064000
     12 CAG          0.3590     2.5030     0.1770 ca         1 21D      -0.155500
     13 CAJ          1.6440     1.9330     0.1540 ca         1 21D      -0.054000
     14 CAN          1.7970     0.5760     0.0830 ca         1 21D      -0.218500
     15 SAR          3.4730    -0.0830     0.0650 s6         1 21D       1.269100
     16 OAF          3.5630    -0.9520     1.2520 o          1 21D      -0.708700
     17 OAD          3.5920    -0.8170    -1.2070 o          1 21D      -0.708700
     18 OAC          4.3590     1.0890     0.1410 o          1 21D      -0.708700
     19 H1          -2.4950    -2.5570    -0.1020 ha         1 21D       0.119000
     20 H2          -0.2440    -3.5560    -0.1500 ha         1 21D       0.080000
     21 H3           1.7360    -2.1660    -0.0740 ha         1 21D       0.128000
     22 H4          -1.7230     2.1890     0.1530 ha         1 21D       0.128000
     23 H5           0.2580     3.5790     0.2330 ha         1 21D       0.080000
     24 H6           2.5090     2.5790     0.1940 ha         1 21D       0.119000
@<TRIPOS>BOND
     1     1     2 1   
     2     2     3 1   
     3     2     4 1   
     4     2     5 1   
     5     5     6 ar  
     6     5    10 ar  
     7     6     7 ar  
     8     6    19 1   
     9     7     8 ar  
    10     7    20 1   
    11     8     9 ar  
    12     8    21 1   
    13     9    10 ar  
    14     9    14 ar  
    15    10    11 ar  
    16    11    12 ar  
    17    11    22 1   
    18    12    13 ar  
    19    12    23 1   
    20    13    14 ar  
    21    13    24 1   
    22    14    15 1   
    23    15    16 1   
    24    15    17 1   
    25    15    18 1   
@<TRIPOS>SUBSTRUCTURE
     1 21D         1 TEMP              0 ****  ****    0 ROOT
