@<TRIPOS>MOLECULE
21E
   42    44     1     0     0
SMALL
abcg2


@<TRIPOS>ATOM
      1 CAI         -1.1900    -1.8090    -0.7460 ca         1 21E      -0.134000
      2 CAL         -2.4980    -2.1860    -0.7970 ca         1 21E      -0.072000
      3 CAT         -3.4940    -1.3150    -0.2990 ca         1 21E      -0.079000
      4 CAJ         -4.8710    -1.6260    -0.3160 ca         1 21E      -0.094000
      5 CAG         -5.7850    -0.7410     0.1870 ca         1 21E      -0.107000
      6 CAH         -5.3590     0.4910     0.7270 ca         1 21E      -0.109000
      7 CAK         -4.0290     0.8170     0.7550 ca         1 21E      -0.075000
      8 CAU         -3.0630    -0.0780     0.2410 ca         1 21E       0.276000
      9 NAM         -1.7610     0.2780     0.2870 nb         1 21E      -0.645000
     10 CAQ         -0.8630    -0.5440    -0.1920 ca         1 21E       0.341000
     11 CAR          0.5390    -0.1240    -0.1160 cc         1 21E       0.264000
     12 NAN          1.4840    -1.0250     0.0080 nd         1 21E      -0.525800
     13 NAV          2.6390    -0.3540     0.1250 na         1 21E       0.103800
     14 CAW          3.9090    -1.1010     0.2660 c3         1 21E       0.123000
     15 CAB          3.5960    -2.5850     0.4410 c3         1 21E      -0.099433
     16 CAC          4.7480    -0.9270    -1.0020 c3         1 21E      -0.099433
     17 CAA          4.6600    -0.6170     1.5080 c3         1 21E      -0.099433
     18 CAP          2.4410     0.9860     0.0680 cd         1 21E       0.248000
     19 NAE          3.4390     1.9180     0.1770 nv         1 21E      -1.062000
     20 CAS          1.0710     1.1830    -0.0810 cc         1 21E      -0.308600
     21 CAO          0.3890     2.4580    -0.3590 c          1 21E       0.656700
     22 OAF         -0.4400     2.5790    -1.2470 o          1 21E      -0.584100
     23 NAD          0.8070     3.5010     0.3970 nt         1 21E      -0.614000
     24 H1          -0.4060    -2.4500    -1.1240 ha         1 21E       0.134000
     25 H2          -2.7850    -3.1420    -1.2180 ha         1 21E       0.117000
     26 H3          -5.1920    -2.5740    -0.7320 ha         1 21E       0.113000
     27 H4          -6.8400    -0.9820     0.1740 ha         1 21E       0.113000
     28 H5          -6.0930     1.1830     1.1200 ha         1 21E       0.114000
     29 H6          -3.6920     1.7610     1.1640 ha         1 21E       0.130000
     30 H7           3.0700    -3.0010    -0.4160 hc         1 21E       0.049144
     31 H8           4.5420    -3.1160     0.5470 hc         1 21E       0.049144
     32 H9           3.0020    -2.7740     1.3340 hc         1 21E       0.049144
     33 H10          5.0480     0.1040    -1.1880 hc         1 21E       0.049144
     34 H11          5.6640    -1.5120    -0.9170 hc         1 21E       0.049144
     35 H12          4.2030    -1.2810    -1.8770 hc         1 21E       0.049144
     36 H13          4.0350    -0.7140     2.3970 hc         1 21E       0.049144
     37 H14          5.5470    -1.2330     1.6520 hc         1 21E       0.049144
     38 H15          4.9890     0.4180     1.4400 hc         1 21E       0.049144
     39 H16          4.3100     1.7020    -0.2810 hn         1 21E       0.460000
     40 H17          3.1380     2.8530    -0.0580 hn         1 21E       0.460000
     41 H18          1.2470     3.3410     1.2880 hn         1 21E       0.304000
     42 H19          0.3550     4.3950     0.2840 hn         1 21E       0.304000
@<TRIPOS>BOND
     1     1     2 ar  
     2     1    10 ar  
     3     1    24 1   
     4     2     3 ar  
     5     2    25 1   
     6     3     4 ar  
     7     3     8 ar  
     8     4     5 ar  
     9     4    26 1   
    10     5     6 ar  
    11     5    27 1   
    12     6     7 ar  
    13     6    28 1   
    14     7     8 ar  
    15     7    29 1   
    16     8     9 ar  
    17     9    10 ar  
    18    10    11 1   
    19    11    12 2   
    20    11    20 1   
    21    12    13 1   
    22    13    14 1   
    23    13    18 1   
    24    14    15 1   
    25    14    16 1   
    26    14    17 1   
    27    15    30 1   
    28    15    31 1   
    29    15    32 1   
    30    16    33 1   
    31    16    34 1   
    32    16    35 1   
    33    17    36 1   
    34    17    37 1   
    35    17    38 1   
    36    18    19 1   
    37    18    20 2   
    38    19    39 1   
    39    19    40 1   
    40    20    21 1   
    41    21    22 2   
    42    21    23 1   
    43    23    41 1   
    44    23    42 1   
@<TRIPOS>SUBSTRUCTURE
     1 21E         1 TEMP              0 ****  ****    0 ROOT
