@<TRIPOS>MOLECULE
21E
   42    44     1     0     0
SMALL
No Charge or Current Charge


@<TRIPOS>ATOM
      1 CAI         -1.2780    -1.7130    -0.8960 ca         1 21E      -0.134000
      2 CAL         -2.6170    -2.1320    -0.8980 ca         1 21E      -0.072000
      3 CAT         -3.5780    -1.2960    -0.3100 ca         1 21E      -0.079000
      4 CAJ         -4.9330    -1.6770    -0.2900 ca         1 21E      -0.094000
      5 CAG         -5.8880    -0.8430     0.3130 ca         1 21E      -0.107000
      6 CAH         -5.4880     0.3690     0.8970 ca         1 21E      -0.109000
      7 CAK         -4.1330     0.7470     0.8770 ca         1 21E      -0.075000
      8 CAU         -3.1610    -0.0740     0.2740 ca         1 21E       0.276000
      9 NAM         -1.8640     0.3130     0.2690 nb         1 21E      -0.645000
     10 CAQ         -0.9260    -0.4570    -0.3490 ca         1 21E       0.341000
     11 CAR          0.5160    -0.0900    -0.2360 cc         1 21E       0.264000
     12 NAN          1.4310    -1.0410    -0.1090 nd         1 21E      -0.525800
     13 NAV          2.6230    -0.3560     0.1030 na         1 21E       0.103800
     14 CAW          3.9150    -1.1060     0.3100 c3         1 21E       0.123000
     15 CAB          3.6820    -2.6480     0.3720 c3         1 21E      -0.099433
     16 CAC          4.8930    -0.8370    -0.8670 c3         1 21E      -0.099433
     17 CAA          4.5760    -0.6940     1.6550 c3         1 21E      -0.099433
     18 CAP          2.4130     1.0420     0.0660 cd         1 21E       0.248000
     19 NAE          3.4290     1.9700     0.1090 nv         1 21E      -1.062000
     20 CAS          1.0810     1.2140    -0.1580 cc         1 21E      -0.308600
     21 CAO          0.3840     2.5030    -0.3560 c          1 21E       0.656700
     22 OAF         -0.6930     2.6480    -0.9050 o          1 21E      -0.584100
     23 NAD          1.0290     3.5960     0.0980 nt         1 21E      -0.614000
     24 H1          -0.5160    -2.3530    -1.3320 ha         1 21E       0.134000
     25 H2          -2.8960    -3.0870    -1.3380 ha         1 21E       0.117000
     26 H3          -5.2470    -2.6180    -0.7380 ha         1 21E       0.113000
     27 H4          -6.9360    -1.1360     0.3290 ha         1 21E       0.113000
     28 H5          -6.2260     1.0170     1.3670 ha         1 21E       0.114000
     29 H6          -3.8310     1.6860     1.3310 ha         1 21E       0.130000
     30 H7           3.2500    -3.0220    -0.5650 hc         1 21E       0.049144
     31 H8           4.6260    -3.1830     0.5360 hc         1 21E       0.049144
     32 H9           3.0040    -2.9130     1.1920 hc         1 21E       0.049144
     33 H10          5.1910     0.2150    -0.9220 hc         1 21E       0.049144
     34 H11          5.8080    -1.4310    -0.7580 hc         1 21E       0.049144
     35 H12          4.4280    -1.1050    -1.8240 hc         1 21E       0.049144
     36 H13          3.8820    -0.8510     2.4900 hc         1 21E       0.049144
     37 H14          5.4750    -1.2920     1.8490 hc         1 21E       0.049144
     38 H15          4.8790     0.3580     1.6630 hc         1 21E       0.049144
     39 H16          4.3840     1.6340     0.1970 hn         1 21E       0.460000
     40 H17          3.3300     2.8240    -0.4370 hn         1 21E       0.460000
     41 H18          1.8890     3.4740     0.6110 hn         1 21E       0.304000
     42 H19          0.5990     4.5030     0.0010 hn         1 21E       0.304000
@<TRIPOS>BOND
     1     1     2 ar  
     2     1    10 ar  
     3     1    24 1   
     4     2     3 ar  
     5     2    25 1   
     6     3     4 ar  
     7     3     8 ar  
     8     4     5 ar  
     9     4    26 1   
    10     5     6 ar  
    11     5    27 1   
    12     6     7 ar  
    13     6    28 1   
    14     7     8 ar  
    15     7    29 1   
    16     8     9 ar  
    17     9    10 ar  
    18    10    11 1   
    19    11    12 2   
    20    11    20 1   
    21    12    13 1   
    22    13    14 1   
    23    13    18 1   
    24    14    15 1   
    25    14    16 1   
    26    14    17 1   
    27    15    30 1   
    28    15    31 1   
    29    15    32 1   
    30    16    33 1   
    31    16    34 1   
    32    16    35 1   
    33    17    36 1   
    34    17    37 1   
    35    17    38 1   
    36    18    19 1   
    37    18    20 2   
    38    19    39 1   
    39    19    40 1   
    40    20    21 1   
    41    21    22 2   
    42    21    23 1   
    43    23    41 1   
    44    23    42 1   
@<TRIPOS>SUBSTRUCTURE
     1 21E         1 TEMP              0 ****  ****    0 ROOT
