@<TRIPOS>MOLECULE
21F
   49    50     1     0     0
SMALL
No Charge or Current Charge


@<TRIPOS>ATOM
      1 C13         80.1700     4.2990   187.6540 c6         1 21F       0.239500
      2 C17         81.4640     8.2440   188.3610 c3         1 21F      -0.066100
      3 C20         81.4410     4.4590   186.7950 c6         1 21F      -0.119900
      4 C21         81.6150     3.2900   185.7980 c6         1 21F       0.095500
      5 C26         80.5200     7.2530   183.0850 ca         1 21F      -0.159000
      6 C02         81.5960     7.6330   183.9050 ca         1 21F       0.148000
      7 C03         82.6920     6.7630   184.0820 ca         1 21F       0.204000
      8 I04         84.3660     7.2930   185.3670 i          1 21F      -0.300000
      9 C05         82.7080     5.5160   183.4410 ca         1 21F      -0.128000
     10 C06         81.6290     5.1170   182.6360 ca         1 21F       0.280000
     11 N07         81.6400     3.8500   182.0350 nu         1 21F      -0.902200
     12 C08         81.7530     2.5660   182.8010 c3         1 21F       0.122800
     13 N10         80.4130     3.0360   184.9520 n          1 21F      -0.404800
     14 C11         79.1460     2.9570   185.7330 c6         1 21F       0.095500
     15 C12         78.9610     4.1330   186.7160 c6         1 21F      -0.119900
     16 N14         79.9030     5.4470   188.5420 n7         1 21F      -0.912300
     17 S15         80.9370     5.8540   189.7880 s6         1 21F       1.226100
     18 C16         82.1050     6.9920   189.0130 c3         1 21F      -0.354400
     19 O18         80.1220     6.5590   190.7790 o          1 21F      -0.537500
     20 O19         81.6510     4.6300   190.1570 o          1 21F      -0.537500
     21 O22         79.6230     1.5530   183.3840 o          1 21F      -0.597100
     22 C23         80.5290     5.9940   182.4440 ca         1 21F       0.116100
     23 O24         79.4820     5.5770   181.6330 os         1 21F      -0.354100
     24 C25         78.3100     6.3810   181.4100 c3         1 21F       0.150900
     25 H131        80.2610     3.3830   188.2610 h1         1 21F       0.073700
     26 H171        82.2460     8.9170   187.9890 hc         1 21F       0.047033
     27 H172        80.8280     7.9750   187.5090 hc         1 21F       0.047033
     28 H1          80.8580     8.8010   189.0870 hc         1 21F       0.047033
     29 H201        81.4040     5.4080   186.2430 hc         1 21F       0.060950
     30 H202        82.3340     4.4860   187.4300 hc         1 21F       0.060950
     31 H211        82.4970     3.5010   185.1840 h1         1 21F       0.064450
     32 H212        81.8380     2.3730   186.3630 h1         1 21F       0.064450
     33 H261        79.6920     7.9450   182.9650 ha         1 21F       0.136000
     34 H051        83.5580     4.8550   183.5770 ha         1 21F       0.120000
     35 H071        80.9540     3.8080   181.2740 hn         1 21F       0.489000
     36 H081        81.7980     1.7230   182.0990 h1         1 21F       0.072200
     37 H082        82.6800     2.5310   183.3850 h1         1 21F       0.072200
     38 H111        78.2880     2.9410   185.0450 h1         1 21F       0.064450
     39 H112        79.1330     2.0100   186.2910 h1         1 21F       0.064450
     40 H121        78.0490     3.9740   187.3060 hc         1 21F       0.060950
     41 H122        78.8040     5.0570   186.1410 hc         1 21F       0.060950
     42 H141        79.9160     6.3020   187.9940 hn         1 21F       0.498000
     43 H161        82.6880     6.4300   188.2800 h1         1 21F       0.097700
     44 H162        82.7780     7.3000   189.8210 h1         1 21F       0.097700
     45 H251        77.6110     5.8570   180.7460 h1         1 21F       0.047033
     46 H252        77.7910     6.5850   182.3560 h1         1 21F       0.047033
     47 H253        78.5740     7.3360   180.9390 h1         1 21F       0.047033
     48 C09         80.5270     2.3020   183.7420 c          1 21F       0.558100
     49 Cl1         81.5430     9.2060   184.7010 cl         1 21F      -0.182000
@<TRIPOS>BOND
     1     1     3 1   
     2     1    15 1   
     3     1    16 1   
     4     1    25 1   
     5     2    18 1   
     6     2    26 1   
     7     2    27 1   
     8     2    28 1   
     9     3     4 1   
    10     3    29 1   
    11     3    30 1   
    12     4    13 1   
    13     4    31 1   
    14     4    32 1   
    15     5     6 ar  
    16     5    22 ar  
    17     5    33 1   
    18     6     7 ar  
    19     6    49 1   
    20     7     8 1   
    21     7     9 ar  
    22     9    10 ar  
    23     9    34 1   
    24    10    11 1   
    25    10    22 ar  
    26    11    12 1   
    27    11    35 1   
    28    12    36 1   
    29    12    37 1   
    30    12    48 1   
    31    13    14 1   
    32    13    48 1   
    33    14    15 1   
    34    14    38 1   
    35    14    39 1   
    36    15    40 1   
    37    15    41 1   
    38    16    17 1   
    39    16    42 1   
    40    17    18 1   
    41    17    19 2   
    42    17    20 2   
    43    18    43 1   
    44    18    44 1   
    45    21    48 2   
    46    22    23 1   
    47    23    24 1   
    48    24    45 1   
    49    24    46 1   
    50    24    47 1   
@<TRIPOS>SUBSTRUCTURE
     1 21F         1 TEMP              0 ****  ****    0 ROOT
