@<TRIPOS>MOLECULE
21F
   49    50     1     0     0
SMALL
abcg2


@<TRIPOS>ATOM
      1 C13         80.5630     4.3170   187.9520 c6         1 21F       0.239500
      2 C17         83.3030     7.0340   189.1440 c3         1 21F      -0.066100
      3 C20         81.8160     4.2520   187.0690 c6         1 21F      -0.119900
      4 C21         81.8640     2.9730   186.2330 c6         1 21F       0.095500
      5 C26         79.5160     7.4880   181.6300 ca         1 21F      -0.159000
      6 C02         79.7600     8.1670   182.8280 ca         1 21F       0.148000
      7 C03         80.5070     7.5600   183.8230 ca         1 21F       0.204000
      8 I04         80.9140     8.4920   185.6720 i          1 21F      -0.300000
      9 C05         81.0140     6.2740   183.6210 ca         1 21F      -0.128000
     10 C06         80.7840     5.5780   182.4400 ca         1 21F       0.280000
     11 N07         81.2910     4.3120   182.1960 nu         1 21F      -0.902200
     12 C08         81.6460     3.4580   183.3070 c3         1 21F       0.122800
     13 N10         80.6190     2.8050   185.4850 n          1 21F      -0.404800
     14 C11         79.4610     2.6770   186.3700 c6         1 21F       0.095500
     15 C12         79.2940     3.9700   187.1660 c6         1 21F      -0.119900
     16 N14         80.3830     5.6520   188.5450 n7         1 21F      -0.912300
     17 S15         80.8730     6.0580   190.0430 s6         1 21F       1.226100
     18 C16         82.6620     6.0370   190.0970 c3         1 21F      -0.354400
     19 O18         80.4320     7.4230   190.2430 o          1 21F      -0.537500
     20 O19         80.4070     5.0310   190.9500 o          1 21F      -0.537500
     21 O22         79.3090     3.0940   183.6620 o          1 21F      -0.597100
     22 C23         80.0160     6.2130   181.4330 ca         1 21F       0.116100
     23 O24         79.8170     5.4750   180.3110 os         1 21F      -0.354100
     24 C25         79.0220     6.0290   179.2630 c3         1 21F       0.150900
     25 H131        80.6660     3.6110   188.7780 h1         1 21F       0.073700
     26 H171        84.3870     6.9620   189.2300 hc         1 21F       0.047033
     27 H172        83.0320     6.8290   188.1080 hc         1 21F       0.047033
     28 H1          83.0040     8.0530   189.3850 hc         1 21F       0.047033
     29 H201        81.8190     5.1170   186.4020 hc         1 21F       0.060950
     30 H202        82.7160     4.3120   187.6830 hc         1 21F       0.060950
     31 H211        82.7200     2.9780   185.5670 h1         1 21F       0.064450
     32 H212        81.9720     2.1010   186.8840 h1         1 21F       0.064450
     33 H261        78.9260     7.9730   180.8680 ha         1 21F       0.136000
     34 H051        81.5990     5.8220   184.4040 ha         1 21F       0.120000
     35 H071        80.8060     3.8370   181.4490 hn         1 21F       0.489000
     36 H081        82.0480     2.5250   182.9080 h1         1 21F       0.072200
     37 H082        82.4440     3.9220   183.8800 h1         1 21F       0.072200
     38 H111        78.5810     2.4710   185.7700 h1         1 21F       0.064450
     39 H112        79.6350     1.8300   187.0380 h1         1 21F       0.064450
     40 H121        78.4540     3.8840   187.8560 hc         1 21F       0.060950
     41 H122        79.0720     4.7830   186.4690 hc         1 21F       0.060950
     42 H141        80.4280     6.4270   187.8910 hn         1 21F       0.498000
     43 H161        82.9540     5.0070   189.8880 h1         1 21F       0.097700
     44 H162        82.9030     6.2520   191.1400 h1         1 21F       0.097700
     45 H251        78.9910     5.2740   178.4820 h1         1 21F       0.047033
     46 H252        78.0100     6.2410   179.6150 h1         1 21F       0.047033
     47 H253        79.4750     6.9440   178.8740 h1         1 21F       0.047033
     48 C09         80.4260     3.1090   184.1820 c          1 21F       0.558100
     49 CL1         79.0880     9.7680   183.0040 cl         1 21F      -0.182000
@<TRIPOS>BOND
     1     1     3 1   
     2     1    15 1   
     3     1    16 1   
     4     1    25 1   
     5     2    18 1   
     6     2    26 1   
     7     2    27 1   
     8     2    28 1   
     9     3     4 1   
    10     3    29 1   
    11     3    30 1   
    12     4    13 1   
    13     4    31 1   
    14     4    32 1   
    15     5     6 ar  
    16     5    22 ar  
    17     5    33 1   
    18     6     7 ar  
    19     6    49 1   
    20     7     8 1   
    21     7     9 ar  
    22     9    10 ar  
    23     9    34 1   
    24    10    11 1   
    25    10    22 ar  
    26    11    12 1   
    27    11    35 1   
    28    12    36 1   
    29    12    37 1   
    30    12    48 1   
    31    13    14 1   
    32    13    48 1   
    33    14    15 1   
    34    14    38 1   
    35    14    39 1   
    36    15    40 1   
    37    15    41 1   
    38    16    17 1   
    39    16    42 1   
    40    17    18 1   
    41    17    19 2   
    42    17    20 2   
    43    18    43 1   
    44    18    44 1   
    45    21    48 2   
    46    22    23 1   
    47    23    24 1   
    48    24    45 1   
    49    24    46 1   
    50    24    47 1   
@<TRIPOS>SUBSTRUCTURE
     1 21F         1 TEMP              0 ****  ****    0 ROOT
