@<TRIPOS>MOLECULE
21G
   47    51     1     0     0
SMALL
No Charge or Current Charge


@<TRIPOS>ATOM
      1 C1           4.5860    -0.6170     0.0220 ca         1 21G      -0.064000
      2 C2           5.9220    -0.1820     0.0080 ca         1 21G       0.069000
      3 C3           6.1990     1.1960    -0.1580 ca         1 21G       0.296900
      4 C5           3.9510     1.7090    -0.2920 ca         1 21G       0.327500
      5 C6           3.6050     0.3790    -0.1290 ca         1 21G      -0.061800
      6 C7           2.1670     0.2980    -0.1680 cc         1 21G      -0.254000
      7 N4           5.2290     2.1400    -0.3080 nb         1 21G      -0.664000
      8 C8           1.6910     1.5910    -0.3540 cd         1 21G      -0.030100
      9 N9           2.8030     2.4650    -0.4310 na         1 21G      -0.317400
     10 C11          1.2570    -0.8500    -0.0260 ca         1 21G       0.279800
     11 N12          1.7880    -2.0330     0.3580 nb         1 21G      -0.239000
     12 C13          0.9480    -3.0780     0.4960 ca         1 21G       0.104900
     13 C14         -0.4270    -2.9430     0.2520 ca         1 21G      -0.067000
     14 C15         -0.8950    -1.6760    -0.1440 ca         1 21G       0.387900
     15 N16         -0.0530    -0.6360    -0.2850 nb         1 21G      -0.232000
     16 N17         -2.2490    -1.4630    -0.4130 nu         1 21G      -0.911100
     17 C18         -2.9000    -0.1520    -0.6040 c6         1 21G       0.245500
     18 C20         -3.0930     0.5910     0.7590 c6         1 21G      -0.191700
     19 C22         -4.5770     1.0860     0.8950 c6         1 21G      -0.044700
     20 C23         -5.0050     1.9190    -0.3540 c6         1 21G      -0.068400
     21 C24         -4.8410     1.0710    -1.6550 c6         1 21G      -0.066400
     22 C25         -4.2860    -0.3430    -1.3090 c6         1 21G      -0.072700
     23 C26         -5.3010    -1.0350    -0.3400 c6         1 21G      -0.066400
     24 C27         -5.4910    -0.1760     0.9500 c6         1 21G      -0.068400
     25 C28         -2.0450     1.7040     0.9790 c          1 21G       0.728000
     26 O29         -1.8910     2.5550     0.1160 o          1 21G      -0.738000
     27 O30         -1.3660     1.6540     1.9940 o          1 21G      -0.738000
     28 F31         -1.2620    -4.0020     0.3960 f          1 21G      -0.193000
     29 F32          6.9290    -1.0760     0.1490 f          1 21G      -0.192000
     30 H1           4.3440    -1.6680     0.1420 ha         1 21G       0.154000
     31 H2           7.2280     1.5550    -0.1720 h4         1 21G       0.020100
     32 H3           0.6630     1.9530    -0.4230 h4         1 21G       0.298000
     33 H4           2.7770     3.4690    -0.5590 hn         1 21G       0.367000
     34 H5           1.3840    -4.0260     0.8050 h4         1 21G       0.014100
     35 H6          -2.8450    -2.2770    -0.2740 hn         1 21G       0.491000
     36 H7          -2.2900     0.4710    -1.2790 h1         1 21G       0.105700
     37 H8          -2.9470    -0.1180     1.5860 hc         1 21G       0.049700
     38 H9          -4.7010     1.6790     1.8120 hc         1 21G       0.066700
     39 H10         -6.0520     2.2330    -0.2490 hc         1 21G       0.031200
     40 H11         -4.4220     2.8460    -0.4270 hc         1 21G       0.031200
     41 H12         -5.8070     0.9820    -2.1700 hc         1 21G       0.028450
     42 H13         -4.1640     1.5820    -2.3530 hc         1 21G       0.028450
     43 H14         -4.1710    -0.9320    -2.2290 hc         1 21G       0.032700
     44 H15         -6.2680    -1.1670    -0.8450 hc         1 21G       0.028450
     45 H16         -4.9560    -2.0430    -0.0740 hc         1 21G       0.028450
     46 H17         -5.2600    -0.7780     1.8400 hc         1 21G       0.031200
     47 H18         -6.5440     0.1240     1.0490 hc         1 21G       0.031200
@<TRIPOS>BOND
     1     1     2 ar  
     2     1     5 ar  
     3     1    30 1   
     4     2     3 ar  
     5     2    29 1   
     6     3     7 ar  
     7     3    31 1   
     8     4     5 ar  
     9     4     7 ar  
    10     4     9 1   
    11     5     6 1   
    12     6     8 2   
    13     6    10 1   
    14     8     9 1   
    15     8    32 1   
    16     9    33 1   
    17    10    11 ar  
    18    10    15 ar  
    19    11    12 ar  
    20    12    13 ar  
    21    12    34 1   
    22    13    14 ar  
    23    13    28 1   
    24    14    15 ar  
    25    14    16 1   
    26    16    17 1   
    27    16    35 1   
    28    17    18 1   
    29    17    22 1   
    30    17    36 1   
    31    18    19 1   
    32    18    25 1   
    33    18    37 1   
    34    19    20 1   
    35    19    24 1   
    36    19    38 1   
    37    20    21 1   
    38    20    39 1   
    39    20    40 1   
    40    21    22 1   
    41    21    41 1   
    42    21    42 1   
    43    22    23 1   
    44    22    43 1   
    45    23    24 1   
    46    23    44 1   
    47    23    45 1   
    48    24    46 1   
    49    24    47 1   
    50    25    26 1   
    51    25    27 1   
@<TRIPOS>SUBSTRUCTURE
     1 21G         1 TEMP              0 ****  ****    0 ROOT
