@<TRIPOS>MOLECULE
21H
   11    10     1     0     0
SMALL
bcc


@<TRIPOS>ATOM
      1 C1           0.9900    -0.1590    -0.6020 c3         1 21H       0.329200
      2 O1           0.0040    -0.9010     0.0480 os         1 21H      -0.404600
      3 O2           1.8280     0.4330     0.3500 oh         1 21H      -0.622800
      4 C6          -1.0160    -0.1480     0.6450 c3         1 21H       0.329200
      5 O7          -1.8820     0.3660    -0.3230 oh         1 21H      -0.622800
      6 H1           1.5370    -0.8780    -1.2190 h2         1 21H       0.042950
      7 H2           0.5490     0.5990    -1.2620 h2         1 21H       0.042950
      8 H3           2.1220     1.2870     0.0220 ho         1 21H       0.409500
      9 H4          -1.5490    -0.8520     1.2890 h2         1 21H       0.042950
     10 H5          -0.6030     0.6530     1.2670 h2         1 21H       0.042950
     11 H6          -1.9350     1.3200    -0.2340 ho         1 21H       0.409500
@<TRIPOS>BOND
     1     1     2 1   
     2     1     3 1   
     3     1     6 1   
     4     1     7 1   
     5     2     4 1   
     6     3     8 1   
     7     4     5 1   
     8     4     9 1   
     9     4    10 1   
    10     5    11 1   
@<TRIPOS>SUBSTRUCTURE
     1 21H         1 TEMP              0 ****  ****    0 ROOT
