@<TRIPOS>MOLECULE
21H
   11    10     1     0     0
SMALL
No Charge or Current Charge


@<TRIPOS>ATOM
      1 C1           1.0360    -0.1430    -0.6220 c3         1 21H       0.375600
      2 O1           0.0030    -0.8800     0.0410 os         1 21H      -0.451000
      3 O2           1.8240     0.5510     0.3450 oh         1 21H      -0.685000
      4 C6          -1.0280    -0.0890     0.6420 c3         1 21H       0.375600
      5 O7          -1.8150     0.5240    -0.3800 oh         1 21H      -0.685000
      6 H1           1.6900    -0.8270    -1.1780 h2         1 21H       0.042950
      7 H2           0.6170     0.5780    -1.3360 h2         1 21H       0.042950
      8 H3           2.5260     1.0120    -0.1620 ho         1 21H       0.448500
      9 H4          -1.6830    -0.7230     1.2520 h2         1 21H       0.042950
     10 H5          -0.6080     0.6890     1.2920 h2         1 21H       0.042950
     11 H6          -2.5170     1.0270     0.0870 ho         1 21H       0.448500
@<TRIPOS>BOND
     1     1     2 1   
     2     1     3 1   
     3     1     6 1   
     4     1     7 1   
     5     2     4 1   
     6     3     8 1   
     7     4     5 1   
     8     4     9 1   
     9     4    10 1   
    10     5    11 1   
@<TRIPOS>SUBSTRUCTURE
     1 21H         1 TEMP              0 ****  ****    0 ROOT
