@<TRIPOS>MOLECULE
21I
   58    62     1     0     0
SMALL
abcg2


@<TRIPOS>ATOM
      1 CAA        -24.8850    -6.1230     6.7510 ca         1 21I      -0.069000
      2 CAB        -25.1540    -7.5090     6.7650 ca         1 21I      -0.150000
      3 CAC        -24.7210    -8.3360     5.7470 ca         1 21I      -0.030000
      4 CAD        -23.9940    -7.7690     4.6870 ca         1 21I      -0.213900
      5 CAE        -23.7500    -6.3750     4.6880 ca         1 21I      -0.034200
      6 CAF        -24.1860    -5.5340     5.7170 ca         1 21I      -0.138000
      7 CAG        -23.4000    -8.2380     3.4660 cc         1 21I       0.403500
      8 CAH        -21.9310    -6.4290    -6.3470 cy         1 21I      -0.098400
      9 CAI        -22.0530    -4.9280    -5.9740 cy         1 21I      -0.091400
     10 CAJ        -21.9850    -5.3340    -4.4790 cy         1 21I      -0.098400
     11 CAK        -21.3610    -6.6710    -4.9330 cy         1 21I       0.060300
     12 CAO        -22.9470    -8.3870    -3.9690 cc         1 21I      -0.199000
     13 CAP        -22.7140    -9.5550    -3.2800 cd         1 21I       0.165300
     14 CAQ        -23.6900   -10.5310    -2.7070 c3         1 21I       0.090700
     15 CAU        -23.2760   -14.8350     7.4090 c3         1 21I      -0.077100
     16 CAV        -23.2390   -11.0930     1.0260 ca         1 21I      -0.120600
     17 CAW        -23.3080    -9.8010     1.5390 ca         1 21I      -0.090000
     18 CAX        -23.3560    -9.5990     2.9210 ca         1 21I      -0.073900
     19 CBA        -23.2250   -12.1840     1.8870 ca         1 21I      -0.113000
     20 CBB        -23.2930   -11.9960     3.2690 ca         1 21I      -0.030000
     21 CBC        -23.3490   -10.6980     3.7830 ca         1 21I      -0.104000
     22 CBF        -23.4990   -14.7000     5.9100 c3         1 21I      -0.155400
     23 NAL        -21.3670    -9.7050    -3.1580 nd         1 21I      -0.329000
     24 NAM        -20.7700    -8.6960    -3.7310 nc         1 21I      -0.199800
     25 NAN        -21.7190    -7.8880    -4.2290 na         1 21I       0.128800
     26 NAR        -23.7520   -10.4730    -1.2530 ns         1 21I      -0.501900
     27 NAY        -23.0700    -6.1120     3.5380 na         1 21I      -0.070400
     28 NAZ        -22.8570    -7.2230     2.8040 nd         1 21I      -0.511100
     29 NBD        -23.2830   -13.1450     4.0730 ns         1 21I      -0.151000
     30 OAS        -22.5690   -12.3710    -0.8710 o          1 21I      -0.595100
     31 OBG        -23.6140   -12.3030     6.1710 o          1 21I      -0.586100
     32 H1         -25.2400    -5.5100     7.5690 ha         1 21I       0.113000
     33 H2         -25.7150    -7.9270     7.5910 ha         1 21I       0.117000
     34 H3         -24.9460    -9.3930     5.7710 ha         1 21I       0.132000
     35 H4         -23.9870    -4.4700     5.6980 ha         1 21I       0.118000
     36 H6         -21.2990    -6.7080    -7.1880 hc         1 21I       0.063450
     37 H7         -21.1730    -4.3630    -6.2790 hc         1 21I       0.059700
     38 H8         -22.9480    -4.4070    -6.3050 hc         1 21I       0.059700
     39 H9         -21.3980    -4.7230    -3.7960 hc         1 21I       0.063450
     40 H10        -22.9820    -5.4880    -4.0640 hc         1 21I       0.063450
     41 H11        -20.2740    -6.6330    -4.9240 h1         1 21I       0.100700
     42 H12        -23.8550    -7.8990    -4.2770 h4         1 21I       0.162000
     43 H13        -24.6830   -10.3300    -3.1080 h1         1 21I       0.069700
     44 H14        -23.4090   -11.5470    -2.9800 h1         1 21I       0.069700
     45 H15        -23.3390   -15.8830     7.7030 hc         1 21I       0.045700
     46 H16        -22.2920   -14.4600     7.6950 hc         1 21I       0.045700
     47 H17        -24.0250   -14.2770     7.9700 hc         1 21I       0.045700
     48 H18        -23.3040    -8.9400     0.8870 ha         1 21I       0.128000
     49 H19        -23.1650   -13.1830     1.4760 ha         1 21I       0.132000
     50 H20        -23.3590   -10.5570     4.8480 ha         1 21I       0.155000
     51 H21        -24.4800   -15.1030     5.6330 hc         1 21I       0.058700
     52 H22        -22.7630   -15.2850     5.3520 hc         1 21I       0.058700
     53 H23        -24.2380    -9.6930    -0.8410 hn         1 21I       0.314500
     54 H24        -22.7120    -5.2260     3.2190 hn         1 21I       0.377000
     55 H25        -23.1810   -14.0150     3.5710 hn         1 21I       0.152000
     56 CAT        -23.1500   -11.3700    -0.4470 c          1 21I       0.617700
     57 CBE        -23.4660   -13.2620     5.4220 c          1 21I       0.603100
     58 H5         -22.9130    -6.8900    -6.4600 hc         1 21I       0.063450
@<TRIPOS>BOND
     1     1     2 ar  
     2     1     6 ar  
     3     1    32 1   
     4     2     3 ar  
     5     2    33 1   
     6     3     4 ar  
     7     3    34 1   
     8     4     5 ar  
     9     4     7 1   
    10     5     6 ar  
    11     5    27 1   
    12     6    35 1   
    13     7    18 1   
    14     7    28 2   
    15     8     9 1   
    16     8    11 1   
    17     8    36 1   
    18     8    58 1   
    19     9    10 1   
    20     9    37 1   
    21     9    38 1   
    22    10    11 1   
    23    10    39 1   
    24    10    40 1   
    25    11    25 1   
    26    11    41 1   
    27    12    13 2   
    28    12    25 1   
    29    12    42 1   
    30    13    14 1   
    31    13    23 1   
    32    14    26 1   
    33    14    43 1   
    34    14    44 1   
    35    15    22 1   
    36    15    45 1   
    37    15    46 1   
    38    15    47 1   
    39    16    17 ar  
    40    16    19 ar  
    41    16    56 1   
    42    17    18 ar  
    43    17    48 1   
    44    18    21 ar  
    45    19    20 ar  
    46    19    49 1   
    47    20    21 ar  
    48    20    29 1   
    49    21    50 1   
    50    22    51 1   
    51    22    52 1   
    52    22    57 1   
    53    23    24 2   
    54    24    25 1   
    55    26    53 1   
    56    26    56 1   
    57    27    28 1   
    58    27    54 1   
    59    29    55 1   
    60    29    57 1   
    61    30    56 2   
    62    31    57 2   
@<TRIPOS>SUBSTRUCTURE
     1 21I         1 TEMP              0 ****  ****    0 ROOT
