@<TRIPOS>MOLECULE
21I
   58    62     1     0     0
SMALL
No Charge or Current Charge


@<TRIPOS>ATOM
      1 CAA        -24.7750    -5.8310     6.1190 ca         1 21I      -0.069000
      2 CAB        -25.3630    -7.1080     5.9460 ca         1 21I      -0.150000
      3 CAC        -24.7990    -8.0450     5.0520 ca         1 21I      -0.030000
      4 CAD        -23.6320    -7.6680     4.3670 ca         1 21I      -0.213900
      5 CAE        -23.0860    -6.4310     4.5160 ca         1 21I      -0.034200
      6 CAF        -23.6210    -5.4750     5.3880 ca         1 21I      -0.138000
      7 CAG        -22.8130    -8.3280     3.3690 cc         1 21I       0.403500
      8 CAH        -23.1770    -6.2900    -5.8660 cy         1 21I      -0.098400
      9 CAI        -23.4030    -4.8300    -5.3480 cy         1 21I      -0.091400
     10 CAJ        -22.8990    -5.3710    -3.9680 cy         1 21I      -0.098400
     11 CAK        -22.0220    -6.3610    -4.8090 cy         1 21I       0.060300
     12 CAO        -22.4250    -8.5970    -3.6800 cc         1 21I      -0.199000
     13 CAP        -21.5480    -9.5800    -3.3210 cd         1 21I       0.165300
     14 CAQ        -21.8520   -10.8900    -2.6360 c3         1 21I       0.090700
     15 CAU        -23.6660   -14.9170     7.1250 c3         1 21I      -0.077100
     16 CAV        -22.8640   -11.3540     1.0680 ca         1 21I      -0.120600
     17 CAW        -22.7280   -10.0280     1.5440 ca         1 21I      -0.090000
     18 CAX        -23.0120    -9.7020     2.8870 ca         1 21I      -0.073900
     19 CBA        -23.2760   -12.3540     1.9760 ca         1 21I      -0.113000
     20 CBB        -23.5370   -12.0560     3.3250 ca         1 21I      -0.030000
     21 CBC        -23.3820   -10.7300     3.7770 ca         1 21I      -0.104000
     22 CBF        -24.6890   -14.5570     6.0250 c3         1 21I      -0.155400
     23 NAL        -20.2680    -9.2010    -3.6690 nd         1 21I      -0.329000
     24 NAM        -20.3100    -8.0230    -4.2330 nc         1 21I      -0.199800
     25 NAN        -21.6190    -7.6420    -4.2470 na         1 21I       0.128800
     26 NAR        -22.1680   -10.7140    -1.2130 ns         1 21I      -0.501900
     27 NAY        -22.0160    -6.3460     3.6520 na         1 21I      -0.070400
     28 NAZ        -21.8400    -7.5210     2.9100 nd         1 21I      -0.511100
     29 NBD        -23.9210   -13.1270     4.1780 ns         1 21I      -0.151000
     30 OAS        -22.7110   -12.8720    -0.7940 o          1 21I      -0.595100
     31 OBG        -24.7470   -12.1460     6.1020 o          1 21I      -0.586100
     32 H1         -25.2220    -5.1170     6.8060 ha         1 21I       0.113000
     33 H2         -26.2630    -7.3670     6.5000 ha         1 21I       0.117000
     34 H3         -25.2690    -9.0150     4.9000 ha         1 21I       0.132000
     35 H4         -23.1720    -4.4900     5.4920 ha         1 21I       0.118000
     36 H6         -22.8720    -6.3870    -6.9140 hc         1 21I       0.063450
     37 H7         -22.7530    -4.0750    -5.8090 hc         1 21I       0.059700
     38 H8         -24.4350    -4.4650    -5.3730 hc         1 21I       0.059700
     39 H9         -22.3490    -4.6580    -3.3440 hc         1 21I       0.063450
     40 H10        -23.6730    -5.8480    -3.3550 hc         1 21I       0.063450
     41 H11        -21.1020    -5.8880    -5.1730 h1         1 21I       0.100700
     42 H12        -23.4980    -8.5070    -3.5790 h4         1 21I       0.162000
     43 H13        -22.7060   -11.3630    -3.1380 h1         1 21I       0.069700
     44 H14        -20.9880   -11.5610    -2.7300 h1         1 21I       0.069700
     45 H15        -23.8580   -15.9250     7.5130 hc         1 21I       0.045700
     46 H16        -22.6430   -14.8920     6.7290 hc         1 21I       0.045700
     47 H17        -23.7280   -14.2110     7.9630 hc         1 21I       0.045700
     48 H18        -22.4130    -9.2290     0.8770 ha         1 21I       0.128000
     49 H19        -23.3880   -13.3810     1.6320 ha         1 21I       0.132000
     50 H20        -23.5150   -10.4890     4.8270 ha         1 21I       0.155000
     51 H21        -25.6930   -14.5940     6.4660 hc         1 21I       0.058700
     52 H22        -24.6090   -15.3030     5.2250 hc         1 21I       0.058700
     53 H23        -22.0700    -9.7930    -0.8080 hn         1 21I       0.314500
     54 H24        -21.4080    -5.5370     3.5250 hn         1 21I       0.377000
     55 H25        -23.7750   -14.0440     3.7760 hn         1 21I       0.152000
     56 CAT        -22.5810   -11.7280    -0.3770 c          1 21I       0.617700
     57 CBE        -24.4490   -13.1480     5.4630 c          1 21I       0.603100
     58 H5         -24.0140    -6.9740    -5.6810 hc         1 21I       0.063450
@<TRIPOS>BOND
     1     1     2 ar  
     2     1     6 ar  
     3     1    32 1   
     4     2     3 ar  
     5     2    33 1   
     6     3     4 ar  
     7     3    34 1   
     8     4     5 ar  
     9     4     7 1   
    10     5     6 ar  
    11     5    27 1   
    12     6    35 1   
    13     7    18 1   
    14     7    28 2   
    15     8     9 1   
    16     8    11 1   
    17     8    36 1   
    18     8    58 1   
    19     9    10 1   
    20     9    37 1   
    21     9    38 1   
    22    10    11 1   
    23    10    39 1   
    24    10    40 1   
    25    11    25 1   
    26    11    41 1   
    27    12    13 2   
    28    12    25 1   
    29    12    42 1   
    30    13    14 1   
    31    13    23 1   
    32    14    26 1   
    33    14    43 1   
    34    14    44 1   
    35    15    22 1   
    36    15    45 1   
    37    15    46 1   
    38    15    47 1   
    39    16    17 ar  
    40    16    19 ar  
    41    16    56 1   
    42    17    18 ar  
    43    17    48 1   
    44    18    21 ar  
    45    19    20 ar  
    46    19    49 1   
    47    20    21 ar  
    48    20    29 1   
    49    21    50 1   
    50    22    51 1   
    51    22    52 1   
    52    22    57 1   
    53    23    24 2   
    54    24    25 1   
    55    26    53 1   
    56    26    56 1   
    57    27    28 1   
    58    27    54 1   
    59    29    55 1   
    60    29    57 1   
    61    30    56 2   
    62    31    57 2   
@<TRIPOS>SUBSTRUCTURE
     1 21I         1 TEMP              0 ****  ****    0 ROOT
