@<TRIPOS>MOLECULE
21K
   45    46     1     0     0
SMALL
No Charge or Current Charge


@<TRIPOS>ATOM
      1 C13          5.6670    10.2700    19.4290 ca         1 21K      -0.057000
      2 C17          6.0930     7.7870    18.1820 ca         1 21K       0.063000
      3 C20          6.7040     6.5540    24.5710 c6         1 21K       0.100000
      4 C21          6.9690     7.0940    25.9930 c6         1 21K      -0.110900
      5 C22          9.5920     5.1010    29.0240 c3         1 21K      -0.353400
      6 O01          7.0260     5.8550    28.9930 o          1 21K      -0.535500
      7 N03          8.6710     7.3480    27.7940 n7         1 21K      -0.913300
      8 C04          8.4100     6.7990    26.4500 c6         1 21K       0.235500
      9 C05          9.3640     7.4580    25.4400 c6         1 21K      -0.110900
     10 C06          9.1370     6.9270    24.0060 c6         1 21K       0.100000
     11 N07          7.7140     6.9620    23.5470 n          1 21K      -0.418800
     12 C08          7.3990     6.7940    22.1730 c          1 21K       0.563100
     13 C09          8.4660     7.2430    21.1080 c3         1 21K       0.135800
     14 N10          7.9680     7.3500    19.6960 nu         1 21K      -0.923200
     15 C11          6.9290     8.1850    19.2550 ca         1 21K       0.334000
     16 C12          6.7080     9.4330    19.8700 ca         1 21K      -0.165000
     17 C14          4.8400     9.8650    18.3680 ca         1 21K       0.083000
     18 Cl1          3.5390    10.9130    17.8190 cl         1 21K      -0.207000
     19 C16          5.0530     8.6260    17.7440 ca         1 21K      -0.050000
     20 Cl2          6.3320     6.2330    17.3710 cl         1 21K      -0.210000
     21 O19          6.2980     6.3600    21.8400 o          1 21K      -0.590100
     22 C23         11.0670     5.5770    28.9900 c3         1 21K      -0.064100
     23 O24          8.6750     7.2790    30.2920 o          1 21K      -0.535500
     24 H131         5.5010    11.2330    19.9080 ha         1 21K       0.129000
     25 H201         6.6720     5.4560    24.6070 h1         1 21K       0.061450
     26 H202         5.7060     6.8930    24.2560 h1         1 21K       0.061450
     27 H211         6.7900     8.1770    26.0100 hc         1 21K       0.060200
     28 H212         6.2390     6.6500    26.6810 hc         1 21K       0.060200
     29 H221         9.4230     4.4710    29.9040 h1         1 21K       0.098700
     30 H222         9.3480     4.5200    28.1290 h1         1 21K       0.098700
     31 H031         9.6750     7.4600    27.9080 hn         1 21K       0.493000
     32 H041         8.5870     5.7120    26.4320 h1         1 21K       0.072700
     33 H051         9.2200     8.5470    25.4480 hc         1 21K       0.060200
     34 H052        10.4080     7.2780    25.7280 hc         1 21K       0.060200
     35 H061         9.7730     7.5160    23.3310 h1         1 21K       0.061450
     36 H062         9.4910     5.8870    23.9520 h1         1 21K       0.061450
     37 H091         8.8650     8.2130    21.4360 h1         1 21K       0.070700
     38 H092         9.2930     6.5230    21.1610 h1         1 21K       0.070700
     39 H101         8.0570     6.4980    19.1330 hn         1 21K       0.491000
     40 H121         7.3430     9.7640    20.6860 ha         1 21K       0.113000
     41 H161         4.4140     8.3160    16.9220 ha         1 21K       0.143000
     42 H231        11.7410     4.7120    28.9970 hc         1 21K       0.046367
     43 H232        11.2840     6.1570    28.0850 hc         1 21K       0.046367
     44 H2          11.3040     6.1930    29.8670 hc         1 21K       0.046367
     45 S02          8.3670     6.4200    29.1480 s6         1 21K       1.227100
@<TRIPOS>BOND
     1     1    16 ar  
     2     1    17 ar  
     3     1    24 1   
     4     2    15 ar  
     5     2    19 ar  
     6     2    20 1   
     7     3     4 1   
     8     3    11 1   
     9     3    25 1   
    10     3    26 1   
    11     4     8 1   
    12     4    27 1   
    13     4    28 1   
    14     5    22 1   
    15     5    29 1   
    16     5    30 1   
    17     5    45 1   
    18     6    45 2   
    19     7     8 1   
    20     7    31 1   
    21     7    45 1   
    22     8     9 1   
    23     8    32 1   
    24     9    10 1   
    25     9    33 1   
    26     9    34 1   
    27    10    11 1   
    28    10    35 1   
    29    10    36 1   
    30    11    12 1   
    31    12    13 1   
    32    12    21 2   
    33    13    14 1   
    34    13    37 1   
    35    13    38 1   
    36    14    15 1   
    37    14    39 1   
    38    15    16 ar  
    39    16    40 1   
    40    17    18 1   
    41    17    19 ar  
    42    19    41 1   
    43    22    42 1   
    44    22    43 1   
    45    22    44 1   
    46    23    45 2   
@<TRIPOS>SUBSTRUCTURE
     1 21K         1 TEMP              0 ****  ****    0 ROOT
