@<TRIPOS>MOLECULE
21K
   45    46     1     0     0
SMALL
abcg2


@<TRIPOS>ATOM
      1 C13          6.5200    10.4210    20.6910 ca         1 21K      -0.057000
      2 C17          6.4820     8.5820    18.6310 ca         1 21K       0.063000
      3 C20          6.4320     5.2510    24.2910 c6         1 21K       0.100000
      4 C21          6.4650     6.1400    25.5330 c6         1 21K      -0.110900
      5 C22         10.2970     6.5170    28.6110 c3         1 21K      -0.353400
      6 O01          8.0720     5.2090    29.0200 o          1 21K      -0.535500
      7 N03          7.8730     7.0220    27.3400 n7         1 21K      -0.913300
      8 C04          7.8580     6.1440    26.1620 c6         1 21K       0.235500
      9 C05          8.9140     6.5330    25.1270 c6         1 21K      -0.110900
     10 C06          8.8160     5.6300    23.8980 c6         1 21K       0.100000
     11 N07          7.4660     5.6600    23.3430 n          1 21K      -0.418800
     12 C08          7.1380     6.0690    22.0990 c          1 21K       0.563100
     13 C09          8.2890     6.5260    21.1810 c3         1 21K       0.135800
     14 N10          7.8400     7.0450    19.9160 nu         1 21K      -0.923200
     15 C11          7.1650     8.2390    19.8140 ca         1 21K       0.334000
     16 C12          7.1550     9.1970    20.8400 ca         1 21K      -0.165000
     17 C14          5.8650    10.7170    19.5050 ca         1 21K       0.083000
     18 CL1          5.0580    12.2610    19.3090 cl         1 21K      -0.207000
     19 C16          5.8380     9.7970    18.4670 ca         1 21K      -0.050000
     20 CL2          6.4360     7.4320    17.3100 cl         1 21K      -0.210000
     21 O19          5.9810     6.0710    21.6800 o          1 21K      -0.590100
     22 C23         10.9100     7.8750    28.3080 c3         1 21K      -0.064100
     23 O24          8.1750     7.6040    29.7130 o          1 21K      -0.535500
     24 H131         6.5320    11.1360    21.5020 ha         1 21K       0.129000
     25 H201         6.6170     4.2090    24.5740 h1         1 21K       0.061450
     26 H202         5.4690     5.3060    23.7940 h1         1 21K       0.061450
     27 H211         6.1900     7.1620    25.2570 hc         1 21K       0.060200
     28 H212         5.7350     5.7820    26.2610 hc         1 21K       0.060200
     29 H221        10.6390     6.1170    29.5670 h1         1 21K       0.098700
     30 H222        10.5100     5.7790    27.8360 h1         1 21K       0.098700
     31 H031         7.9420     8.0170    27.1630 hn         1 21K       0.493000
     32 H041         8.0740     5.1360    26.5220 h1         1 21K       0.072700
     33 H051         8.7630     7.5740    24.8260 hc         1 21K       0.060200
     34 H052         9.9150     6.4510    25.5540 hc         1 21K       0.060200
     35 H061         9.5460     5.9230    23.1530 h1         1 21K       0.061450
     36 H062         9.0410     4.5970    24.1850 h1         1 21K       0.061450
     37 H091         8.9030     7.2690    21.6900 h1         1 21K       0.070700
     38 H092         8.9380     5.6710    20.9830 h1         1 21K       0.070700
     39 H101         7.5550     6.3440    19.2500 hn         1 21K       0.491000
     40 H121         7.6460     8.9820    21.7780 ha         1 21K       0.113000
     41 H161         5.3240    10.0150    17.5420 ha         1 21K       0.143000
     42 H231        11.9920     7.7680    28.2270 hc         1 21K       0.046367
     43 H232        10.5400     8.2780    27.3640 hc         1 21K       0.046367
     44 H2          10.6930     8.5890    29.1020 hc         1 21K       0.046367
     45 S02          8.5140     6.5640    28.7650 s6         1 21K       1.227100
@<TRIPOS>BOND
     1     1    16 ar  
     2     1    17 ar  
     3     1    24 1   
     4     2    15 ar  
     5     2    19 ar  
     6     2    20 1   
     7     3     4 1   
     8     3    11 1   
     9     3    25 1   
    10     3    26 1   
    11     4     8 1   
    12     4    27 1   
    13     4    28 1   
    14     5    22 1   
    15     5    29 1   
    16     5    30 1   
    17     5    45 1   
    18     6    45 2   
    19     7     8 1   
    20     7    31 1   
    21     7    45 1   
    22     8     9 1   
    23     8    32 1   
    24     9    10 1   
    25     9    33 1   
    26     9    34 1   
    27    10    11 1   
    28    10    35 1   
    29    10    36 1   
    30    11    12 1   
    31    12    13 1   
    32    12    21 2   
    33    13    14 1   
    34    13    37 1   
    35    13    38 1   
    36    14    15 1   
    37    14    39 1   
    38    15    16 ar  
    39    16    40 1   
    40    17    18 1   
    41    17    19 ar  
    42    19    41 1   
    43    22    42 1   
    44    22    43 1   
    45    22    44 1   
    46    23    45 2   
@<TRIPOS>SUBSTRUCTURE
     1 21K         1 TEMP              0 ****  ****    0 ROOT
