@<TRIPOS>MOLECULE
21L
   71    75     1     0     0
SMALL
bcc


@<TRIPOS>ATOM
      1 C1           0.8380     3.3240     2.1360 ca         1 21L      -0.133000
      2 C2           0.5110     2.1340     2.8150 ca         1 21L      -0.130000
      3 C3           1.7910     3.3110     1.1540 ca         1 21L      -0.129000
      4 C4           1.1320     0.9570     2.4900 ca         1 21L      -0.103000
      5 C5           3.4540     2.0980    -0.1990 ca         1 21L      -0.106000
      6 C6           3.7410    -0.2550     0.1190 ca         1 21L      -0.112000
      7 C7          -3.1280    -3.9150     0.4100 ca         1 21L      -0.301000
      8 C8           2.4550     2.1120     0.8040 ca         1 21L      -0.042000
      9 C9           2.1150     0.9080     1.4740 ca         1 21L      -0.020000
     10 C10         -1.1900    -2.6750     1.2280 ca         1 21L      -0.239600
     11 C11         -3.0820    -1.5330     0.1700 ca         1 21L      -0.301300
     12 C12          4.1020     0.9440    -0.5410 ca         1 21L      -0.083300
     13 C13          2.7800    -0.2950     1.0930 ca         1 21L      -0.097300
     14 C14         -1.8400    -1.5520     0.7770 ca         1 21L       0.185100
     15 C15         -1.8860    -3.8860     1.0380 ca         1 21L       0.253100
     16 C16         -3.7440    -2.7340    -0.0260 ca         1 21L       0.283100
     17 C17         -1.8740     1.7930    -0.1230 ce         1 21L      -0.307000
     18 C18         -3.8980     1.7590    -1.5950 cf         1 21L      -0.410400
     19 C19         -2.8190     2.4240    -1.0070 ce         1 21L       0.308100
     20 C20         -2.1660     0.5560     0.2880 c2         1 21L       0.180900
     21 C21         -4.1670     0.3990    -1.2070 c          1 21L       0.646300
     22 C22          0.1280    -2.5900     1.9290 c          1 21L       0.712700
     23 C23         -4.7350     2.4460    -2.6070 c          1 21L       0.610300
     24 C24          7.6930     0.8130    -1.9200 c          1 21L       0.638100
     25 C25         -3.4820    -0.0910     0.0500 c5         1 21L      -0.105500
     26 C26         -5.3240     1.6440    -3.7400 c3         1 21L      -0.183100
     27 C27         -4.4380     0.2940     1.2190 c3         1 21L      -0.071100
     28 C28         -1.8520    -6.2490     1.2810 c3         1 21L       0.122700
     29 C29         10.0360     0.7270    -2.1440 c3         1 21L       0.128700
     30 C30          5.1900     0.9250    -1.5770 c3         1 21L      -0.022100
     31 C31          2.3910    -1.6200     1.6940 c3         1 21L       0.149300
     32 C32          6.5660     0.8470    -0.9220 c3         1 21L      -0.139400
     33 N33          1.0930    -2.0220     1.1900 ns         1 21L      -0.569900
     34 O34         -5.0030    -0.3360    -1.7290 o          1 21L      -0.576100
     35 O35          0.2820    -2.9680     3.0790 o          1 21L      -0.585100
     36 O36         -4.9380     3.6420    -2.5430 o          1 21L      -0.529100
     37 O37          7.5590     0.8240    -3.1180 o          1 21L      -0.536000
     38 O38         -1.3230    -0.2820     0.9000 os         1 21L      -0.188200
     39 O39         -4.9380    -2.8110    -0.6120 oh         1 21L      -0.499100
     40 O40         -2.5630     3.6610    -1.3670 oh         1 21L      -0.434100
     41 O41         -1.2460    -4.9810     1.4590 os         1 21L      -0.293900
     42 O42          8.8740     0.7670    -1.3160 os         1 21L      -0.421900
     43 H1           0.3370     4.2470     2.3970 ha         1 21L       0.132000
     44 H2          -0.2400     2.1480     3.5930 ha         1 21L       0.136000
     45 H3           2.0530     4.2250     0.6330 ha         1 21L       0.131000
     46 H4           0.8610     0.0580     3.0270 ha         1 21L       0.147000
     47 H5           3.7010     3.0290    -0.6990 ha         1 21L       0.133000
     48 H6           4.2350    -1.1760    -0.1700 ha         1 21L       0.132000
     49 H7          -3.6420    -4.8490     0.2330 ha         1 21L       0.161000
     50 H17         -0.9230     2.2660     0.0960 ha         1 21L       0.173000
     51 H26         -6.2490     1.1620    -3.4220 hc         1 21L       0.062367
     52 H26A        -5.5590     2.3170    -4.5620 hc         1 21L       0.062367
     53 H26B        -4.6560     0.8610    -4.0930 hc         1 21L       0.062367
     54 H27         -3.9950     0.0090     2.1720 hc         1 21L       0.058367
     55 H27A        -4.6390     1.3640     1.2280 hc         1 21L       0.058367
     56 H27B        -5.3800    -0.2420     1.1070 hc         1 21L       0.058367
     57 H28         -2.0240    -6.4700     0.2250 h1         1 21L       0.049033
     58 H28A        -1.1550    -6.9780     1.6840 h1         1 21L       0.049033
     59 H28B        -2.7980    -6.3250     1.8210 h1         1 21L       0.049033
     60 H29         10.8860     0.7010    -1.4680 h1         1 21L       0.049033
     61 H29A        10.0490    -0.1650    -2.7710 h1         1 21L       0.049033
     62 H29B        10.1070     1.6110    -2.7770 h1         1 21L       0.049033
     63 H30          5.0520     0.0710    -2.2430 hc         1 21L       0.063200
     64 H30A         5.1250     1.8220    -2.1960 hc         1 21L       0.063200
     65 H31          3.1480    -2.3700     1.4500 h1         1 21L       0.062700
     66 H31A         2.3400    -1.5690     2.7820 h1         1 21L       0.062700
     67 H32          6.6430    -0.0420    -0.2870 hc         1 21L       0.076200
     68 H32A         6.7180     1.6980    -0.2530 hc         1 21L       0.076200
     69 HN33         0.9020    -1.8260     0.2200 hn         1 21L       0.320500
     70 HO39        -5.1380    -1.9510    -1.0450 ho         1 21L       0.480000
     71 HO40        -1.7610     3.9940    -0.9420 ho         1 21L       0.444000
@<TRIPOS>BOND
     1     1     2 ar  
     2     1     3 ar  
     3     1    43 1   
     4     2     4 ar  
     5     2    44 1   
     6     3     8 ar  
     7     3    45 1   
     8     4     9 ar  
     9     4    46 1   
    10     5     8 ar  
    11     5    12 ar  
    12     5    47 1   
    13     6    12 ar  
    14     6    13 ar  
    15     6    48 1   
    16     7    15 ar  
    17     7    16 ar  
    18     7    49 1   
    19     8     9 ar  
    20     9    13 ar  
    21    10    14 ar  
    22    10    15 ar  
    23    10    22 1   
    24    11    14 ar  
    25    11    16 ar  
    26    11    25 1   
    27    12    30 1   
    28    13    31 1   
    29    14    38 1   
    30    15    41 1   
    31    16    39 1   
    32    17    19 1   
    33    17    20 2   
    34    17    50 1   
    35    18    19 2   
    36    18    21 1   
    37    18    23 1   
    38    19    40 1   
    39    20    25 1   
    40    20    38 1   
    41    21    25 1   
    42    21    34 2   
    43    22    33 1   
    44    22    35 2   
    45    23    26 1   
    46    23    36 2   
    47    24    32 1   
    48    24    37 2   
    49    24    42 1   
    50    25    27 1   
    51    26    51 1   
    52    26    52 1   
    53    26    53 1   
    54    27    54 1   
    55    27    55 1   
    56    27    56 1   
    57    28    41 1   
    58    28    57 1   
    59    28    58 1   
    60    28    59 1   
    61    29    42 1   
    62    29    60 1   
    63    29    61 1   
    64    29    62 1   
    65    30    32 1   
    66    30    63 1   
    67    30    64 1   
    68    31    33 1   
    69    31    65 1   
    70    31    66 1   
    71    32    67 1   
    72    32    68 1   
    73    33    69 1   
    74    39    70 1   
    75    40    71 1   
@<TRIPOS>SUBSTRUCTURE
     1 21L         1 TEMP              0 ****  ****    0 ROOT
