@<TRIPOS>MOLECULE
21L
   71    75     1     0     0
SMALL
No Charge or Current Charge


@<TRIPOS>ATOM
      1 C1           0.9130     3.7480     1.8670 ca         1 21L      -0.115000
      2 C2           0.4370     2.5970     2.5120 ca         1 21L      -0.112000
      3 C3           2.0260     3.6620     1.0160 ca         1 21L      -0.111000
      4 C4           1.0690     1.3590     2.3070 ca         1 21L      -0.085000
      5 C5           3.7750     2.3600    -0.0560 ca         1 21L      -0.088000
      6 C6           3.9460    -0.0290     0.3340 ca         1 21L      -0.094000
      7 C7          -3.0810    -4.0440     0.3240 ca         1 21L      -0.283000
      8 C8           2.6630     2.4240     0.8030 ca         1 21L      -0.042000
      9 C9           2.1870     1.2540     1.4440 ca         1 21L      -0.020000
     10 C10         -1.0890    -2.8070     1.0570 ca         1 21L      -0.239600
     11 C11         -3.0440    -1.6430     0.1430 ca         1 21L      -0.301300
     12 C12          4.4210     1.1360    -0.2930 ca         1 21L      -0.083300
     13 C13          2.8350     0.0130     1.2010 ca         1 21L      -0.097300
     14 C14         -1.7670    -1.6360     0.6690 ca         1 21L       0.185100
     15 C15         -1.7790    -4.0330     0.8870 ca         1 21L       0.253100
     16 C16         -3.7100    -2.8530    -0.0530 ca         1 21L       0.283100
     17 C17         -2.0020     1.7040    -0.3690 ce         1 21L      -0.357000
     18 C18         -4.0270     1.6140    -1.7770 cf         1 21L      -0.410400
     19 C19         -3.0130     2.3330    -1.2040 ce         1 21L       0.308100
     20 C20         -2.1930     0.4850     0.1450 c2         1 21L       0.180900
     21 C21         -4.1260     0.1540    -1.4490 c          1 21L       0.646300
     22 C22          0.3020    -2.7510     1.6360 c          1 21L       0.645700
     23 C23         -5.0070     2.2330    -2.7370 c          1 21L       0.610300
     24 C24          8.1520     1.1950    -1.4030 c          1 21L       0.589100
     25 C25         -3.5330    -0.2030    -0.0590 c5         1 21L      -0.105500
     26 C26         -6.3150     1.5040    -3.0620 c3         1 21L      -0.183100
     27 C27         -4.5400     0.2020     1.0500 c3         1 21L      -0.071100
     28 C28         -1.7690    -6.5020     1.0840 c3         1 21L       0.145900
     29 C29          9.7990    -0.3000    -2.3290 c3         1 21L       0.151900
     30 C30          5.6260     1.0710    -1.2220 c3         1 21L      -0.022100
     31 C31          2.3490    -1.2980     1.8160 c3         1 21L       0.149300
     32 C32          6.9530     1.2730    -0.4580 c3         1 21L      -0.139400
     33 N33          1.0510    -1.6640     1.2620 ns         1 21L      -0.502900
     34 O34         -4.6680    -0.6750    -2.1690 o          1 21L      -0.576100
     35 O35          0.7420    -3.5700     2.4300 o          1 21L      -0.585100
     36 O36         -4.8210     3.3260    -3.2540 o          1 21L      -0.529100
     37 O37          8.5630     2.1450    -2.0560 o          1 21L      -0.487000
     38 O38         -1.2980    -0.3580     0.7370 os         1 21L      -0.188200
     39 O39         -4.9360    -2.8840    -0.6290 oh         1 21L      -0.538100
     40 O40         -2.8280     3.6540    -1.4070 oh         1 21L      -0.473100
     41 O41         -1.1460    -5.2130     1.2270 os         1 21L      -0.317100
     42 O42          8.6740    -0.0710    -1.4600 os         1 21L      -0.445100
     43 H1           0.4240     4.7060     2.0280 ha         1 21L       0.114000
     44 H2          -0.4240     2.6630     3.1740 ha         1 21L       0.118000
     45 H3           2.3920     4.5590     0.5220 ha         1 21L       0.113000
     46 H4           0.6750     0.4920     2.8280 ha         1 21L       0.129000
     47 H5           4.1370     3.2640    -0.5410 ha         1 21L       0.115000
     48 H6           4.4440    -0.9770     0.1410 ha         1 21L       0.114000
     49 H7          -3.6180    -4.9720     0.1610 ha         1 21L       0.143000
     50 H17         -1.0320     2.1910    -0.2550 ha         1 21L       0.223000
     51 H26         -6.7060     1.0030    -2.1700 hc         1 21L       0.062367
     52 H26A        -7.0570     2.1740    -3.5120 hc         1 21L       0.062367
     53 H26B        -6.0990     0.6870    -3.7580 hc         1 21L       0.062367
     54 H27         -4.1360    -0.0090     2.0480 hc         1 21L       0.058367
     55 H27A        -4.7750     1.2730     1.0110 hc         1 21L       0.058367
     56 H27B        -5.4820    -0.3500     0.9530 hc         1 21L       0.058367
     57 H28         -2.0180    -6.7020     0.0340 h1         1 21L       0.049033
     58 H28A        -1.0880    -7.2920     1.4250 h1         1 21L       0.049033
     59 H28B        -2.6850    -6.5630     1.6840 h1         1 21L       0.049033
     60 H29         10.1140    -1.3500    -2.2770 h1         1 21L       0.049033
     61 H29A         9.5420    -0.0740    -3.3720 h1         1 21L       0.049033
     62 H29B        10.6530     0.3260    -2.0380 h1         1 21L       0.049033
     63 H30          5.6510     0.1040    -1.7410 hc         1 21L       0.063200
     64 H30A         5.5400     1.8340    -2.0060 hc         1 21L       0.063200
     65 H31          3.0630    -2.1060     1.6100 h1         1 21L       0.062700
     66 H31A         2.2660    -1.1930     2.9060 h1         1 21L       0.062700
     67 H32          7.0290     0.4730     0.2880 hc         1 21L       0.076200
     68 H32A         6.9390     2.2550     0.0290 hc         1 21L       0.076200
     69 HN33         0.6110    -1.0180     0.6190 hn         1 21L       0.320500
     70 HO39        -4.9830    -2.0890    -1.2160 ho         1 21L       0.519000
     71 HO40        -2.0770     3.9120    -0.8380 ho         1 21L       0.483000
@<TRIPOS>BOND
     1     1     2 ar  
     2     1     3 ar  
     3     1    43 1   
     4     2     4 ar  
     5     2    44 1   
     6     3     8 ar  
     7     3    45 1   
     8     4     9 ar  
     9     4    46 1   
    10     5     8 ar  
    11     5    12 ar  
    12     5    47 1   
    13     6    12 ar  
    14     6    13 ar  
    15     6    48 1   
    16     7    15 ar  
    17     7    16 ar  
    18     7    49 1   
    19     8     9 ar  
    20     9    13 ar  
    21    10    14 ar  
    22    10    15 ar  
    23    10    22 1   
    24    11    14 ar  
    25    11    16 ar  
    26    11    25 1   
    27    12    30 1   
    28    13    31 1   
    29    14    38 1   
    30    15    41 1   
    31    16    39 1   
    32    17    19 1   
    33    17    20 2   
    34    17    50 1   
    35    18    19 2   
    36    18    21 1   
    37    18    23 1   
    38    19    40 1   
    39    20    25 1   
    40    20    38 1   
    41    21    25 1   
    42    21    34 2   
    43    22    33 1   
    44    22    35 2   
    45    23    26 1   
    46    23    36 2   
    47    24    32 1   
    48    24    37 2   
    49    24    42 1   
    50    25    27 1   
    51    26    51 1   
    52    26    52 1   
    53    26    53 1   
    54    27    54 1   
    55    27    55 1   
    56    27    56 1   
    57    28    41 1   
    58    28    57 1   
    59    28    58 1   
    60    28    59 1   
    61    29    42 1   
    62    29    60 1   
    63    29    61 1   
    64    29    62 1   
    65    30    32 1   
    66    30    63 1   
    67    30    64 1   
    68    31    33 1   
    69    31    65 1   
    70    31    66 1   
    71    32    67 1   
    72    32    68 1   
    73    33    69 1   
    74    39    70 1   
    75    40    71 1   
@<TRIPOS>SUBSTRUCTURE
     1 21L         1 TEMP              0 ****  ****    0 ROOT
