@<TRIPOS>MOLECULE
21M
   44    45     1     0     0
SMALL
No Charge or Current Charge


@<TRIPOS>ATOM
      1 Cl1          3.8970    11.5130    18.5380 cl         1 21M      -0.201000
      2 Cl2          6.1600     6.9630    16.5240 cl         1 21M      -0.177000
      3 C02          4.9540    10.1230    18.7480 ca         1 21M       0.095000
      4 C03          5.6280     9.9320    19.9650 ca         1 21M      -0.063000
      5 C04          6.4750     8.8220    20.1380 ca         1 21M      -0.179000
      6 C05          6.6470     7.8910    19.0860 ca         1 21M       0.154100
      7 O06          7.4730     6.7840    19.2060 os         1 21M      -0.301100
      8 C07          8.1080     6.4030    20.4520 c3         1 21M       0.080600
      9 C08          7.1070     5.8680    21.5130 c          1 21M       0.564100
     10 N09          7.6000     5.5340    22.8010 n          1 21M      -0.411800
     11 C10          6.7040     5.0970    23.9040 c6         1 21M       0.096000
     12 C11          6.6690     6.1630    25.0240 c6         1 21M      -0.116400
     13 C12          8.0970     6.4810    25.5430 c6         1 21M       0.240500
     14 N13          8.0810     7.5840    26.5190 n7         1 21M      -0.912300
     15 S14          7.8440     7.2660    28.1400 s6         1 21M       1.225100
     16 C15          9.3260     6.3480    28.6010 c3         1 21M      -0.355400
     17 C16         10.6620     7.0980    28.3640 c3         1 21M      -0.063100
     18 O17          6.6750     6.3910    28.2450 o          1 21M      -0.534500
     19 O18          7.8440     8.5720    28.8010 o          1 21M      -0.534500
     20 C19          9.0090     6.8730    24.3540 c6         1 21M      -0.116400
     21 C20          8.9940     5.7810    23.2590 c6         1 21M       0.096000
     22 O21          5.9180     5.7200    21.2520 o          1 21M      -0.564100
     23 C22          5.9670     8.0960    17.8640 ca         1 21M       0.100000
     24 C24          5.1230     9.2070    17.6980 ca         1 21M      -0.060000
     25 H031         5.4930    10.6470    20.7740 ha         1 21M       0.131000
     26 H041         6.9830     8.7050    21.0900 ha         1 21M       0.114000
     27 H072         8.8300     5.5990    20.2680 h1         1 21M       0.073200
     28 H071         8.6620     7.2470    20.8780 h1         1 21M       0.073200
     29 H101         5.6830     4.9150    23.5400 h1         1 21M       0.065950
     30 H102         7.0740     4.1450    24.3120 h1         1 21M       0.065950
     31 H111         6.2020     7.0800    24.6390 hc         1 21M       0.061450
     32 H112         6.0270     5.8040    25.8370 hc         1 21M       0.061450
     33 H121         8.5200     5.5720    25.9980 h1         1 21M       0.062700
     34 H131         9.0170     7.9770    26.5760 hn         1 21M       0.493000
     35 H151         9.2060     6.1280    29.6680 h1         1 21M       0.099200
     36 H152         9.3040     5.4040    28.0470 h1         1 21M       0.099200
     37 H162        11.5000     6.5010    28.7450 hc         1 21M       0.046033
     38 H161        10.8420     7.2760    27.2970 hc         1 21M       0.046033
     39 H1          10.6720     8.0620    28.8870 hc         1 21M       0.046033
     40 H192        10.0390     7.0250    24.7010 hc         1 21M       0.061450
     41 H191         8.6740     7.8260    23.9210 hc         1 21M       0.061450
     42 H202         9.4030     4.8470    23.6710 h1         1 21M       0.065950
     43 H201         9.6570     6.0750    22.4360 h1         1 21M       0.065950
     44 H241         4.6020     9.3580    16.7570 ha         1 21M       0.147000
@<TRIPOS>BOND
     1     1     3 1   
     2     2    23 1   
     3     3     4 ar  
     4     3    24 ar  
     5     4     5 ar  
     6     4    25 1   
     7     5     6 ar  
     8     5    26 1   
     9     6     7 1   
    10     6    23 ar  
    11     7     8 1   
    12     8     9 1   
    13     8    27 1   
    14     8    28 1   
    15     9    10 1   
    16     9    22 2   
    17    10    11 1   
    18    10    21 1   
    19    11    12 1   
    20    11    29 1   
    21    11    30 1   
    22    12    13 1   
    23    12    31 1   
    24    12    32 1   
    25    13    14 1   
    26    13    20 1   
    27    13    33 1   
    28    14    15 1   
    29    14    34 1   
    30    15    16 1   
    31    15    18 2   
    32    15    19 2   
    33    16    17 1   
    34    16    35 1   
    35    16    36 1   
    36    17    37 1   
    37    17    38 1   
    38    17    39 1   
    39    20    21 1   
    40    20    40 1   
    41    20    41 1   
    42    21    42 1   
    43    21    43 1   
    44    23    24 ar  
    45    24    44 1   
@<TRIPOS>SUBSTRUCTURE
     1 21M         1 TEMP              0 ****  ****    0 ROOT
