@<TRIPOS>MOLECULE
21M
   44    45     1     0     0
SMALL
abcg2


@<TRIPOS>ATOM
      1 CL1          4.5560    11.7250    19.8570 cl         1 21M      -0.201000
      2 CL2          6.4510     7.5840    16.9470 cl         1 21M      -0.177000
      3 C02          5.4880    10.2460    19.7600 ca         1 21M       0.095000
      4 C03          6.1070     9.7470    20.8940 ca         1 21M      -0.063000
      5 C04          6.8400     8.5700    20.8110 ca         1 21M      -0.179000
      6 C05          6.9610     7.8840    19.6030 ca         1 21M       0.154100
      7 O06          7.6620     6.7370    19.4330 os         1 21M      -0.301100
      8 C07          8.2200     6.1140    20.5770 c3         1 21M       0.080600
      9 C08          7.1230     5.5060    21.4650 c          1 21M       0.564100
     10 N09          7.4910     5.0810    22.6910 n          1 21M      -0.411800
     11 C10          6.4670     4.7360    23.6770 c6         1 21M       0.096000
     12 C11          6.3290     5.8820    24.6790 c6         1 21M      -0.116400
     13 C12          7.6730     6.2010    25.3370 c6         1 21M       0.240500
     14 N13          7.5400     7.3770    26.2120 n7         1 21M      -0.912300
     15 S14          7.8530     7.3080    27.8080 s6         1 21M       1.225100
     16 C15          9.6060     7.0250    28.0310 c3         1 21M      -0.355400
     17 C16         10.4720     8.1710    27.5320 c3         1 21M      -0.063100
     18 O17          7.1670     6.1440    28.3300 o          1 21M      -0.534500
     19 O18          7.5280     8.6150    28.3380 o          1 21M      -0.534500
     20 C19          8.7740     6.4220    24.2980 c6         1 21M      -0.116400
     21 C20          8.8120     5.2760    23.2870 c6         1 21M       0.096000
     22 O21          5.9730     5.4230    21.0400 o          1 21M      -0.564100
     23 C22          6.3260     8.4160    18.4730 ca         1 21M       0.100000
     24 C24          5.5910     9.5890    18.5420 ca         1 21M      -0.060000
     25 H031         6.0200    10.2620    21.8400 ha         1 21M       0.131000
     26 H041         7.3080     8.1910    21.7070 ha         1 21M       0.114000
     27 H072         8.8630     5.3200    20.1960 h1         1 21M       0.073200
     28 H071         8.8410     6.8200    21.1270 h1         1 21M       0.073200
     29 H101         5.5320     4.5490    23.1600 h1         1 21M       0.065950
     30 H102         6.7770     3.8170    24.1830 h1         1 21M       0.065950
     31 H111         5.9640     6.7710    24.1580 hc         1 21M       0.061450
     32 H112         5.6000     5.6220    25.4490 hc         1 21M       0.061450
     33 H121         7.9510     5.3530    25.9660 h1         1 21M       0.062700
     34 H131         7.7620     8.2740    25.7980 hn         1 21M       0.493000
     35 H151         9.7210     6.8590    29.1040 h1         1 21M       0.099200
     36 H152         9.8220     6.0870    27.5160 h1         1 21M       0.099200
     37 H162        11.5210     7.9190    27.6890 hc         1 21M       0.046033
     38 H161        10.3230     8.3470    26.4660 hc         1 21M       0.046033
     39 H1          10.2530     9.0910    28.0730 hc         1 21M       0.046033
     40 H192         9.7440     6.5070    24.7920 hc         1 21M       0.061450
     41 H191         8.5860     7.3610    23.7680 hc         1 21M       0.061450
     42 H202         9.0850     4.3440    23.7880 h1         1 21M       0.065950
     43 H201         9.5600     5.4540    22.5220 h1         1 21M       0.065950
     44 H241         5.1080     9.9770    17.6580 ha         1 21M       0.147000
@<TRIPOS>BOND
     1     1     3 1   
     2     2    23 1   
     3     3     4 ar  
     4     3    24 ar  
     5     4     5 ar  
     6     4    25 1   
     7     5     6 ar  
     8     5    26 1   
     9     6     7 1   
    10     6    23 ar  
    11     7     8 1   
    12     8     9 1   
    13     8    27 1   
    14     8    28 1   
    15     9    10 1   
    16     9    22 2   
    17    10    11 1   
    18    10    21 1   
    19    11    12 1   
    20    11    29 1   
    21    11    30 1   
    22    12    13 1   
    23    12    31 1   
    24    12    32 1   
    25    13    14 1   
    26    13    20 1   
    27    13    33 1   
    28    14    15 1   
    29    14    34 1   
    30    15    16 1   
    31    15    18 2   
    32    15    19 2   
    33    16    17 1   
    34    16    35 1   
    35    16    36 1   
    36    17    37 1   
    37    17    38 1   
    38    17    39 1   
    39    20    21 1   
    40    20    40 1   
    41    20    41 1   
    42    21    42 1   
    43    21    43 1   
    44    23    24 ar  
    45    24    44 1   
@<TRIPOS>SUBSTRUCTURE
     1 21M         1 TEMP              0 ****  ****    0 ROOT
