@<TRIPOS>MOLECULE
21N
   45    46     1     0     0
SMALL
No Charge or Current Charge


@<TRIPOS>ATOM
      1 C1          -3.0030    -0.3300     0.7830 c6         1 21N       0.299700
      2 F1           6.2200     1.8930    -1.6920 f          1 21N      -0.111667
      3 N1          -1.8060    -1.1140     1.0610 ns         1 21N      -0.428900
      4 S1          -3.0530    -3.4880     1.1930 s          1 21N      -0.600400
      5 C2          -2.8420     1.1530     1.2600 c6         1 21N       0.101300
      6 F2           7.2130     0.7790    -0.1110 f          1 21N      -0.111667
      7 N2          -0.4340    -2.9390     1.2820 ns         1 21N      -0.226900
      8 O2          -2.6950     1.2620     2.6970 oh         1 21N      -0.713000
      9 C3          -4.0860     1.9670     0.8030 c6         1 21N       0.138300
     10 F3           6.0170     2.5290     0.3710 f          1 21N      -0.111667
     11 N3           0.7080    -2.1460     1.2550 n2         1 21N      -0.476300
     12 O3          -3.9500     3.3430     1.1970 oh         1 21N      -0.665000
     13 C4          -4.2810     1.8490    -0.7360 c6         1 21N       0.141300
     14 O4          -5.4570     2.5790    -1.1320 oh         1 21N      -0.714000
     15 C5          -4.3580     0.3390    -1.1280 c6         1 21N       0.179300
     16 O5          -3.1720    -0.3510    -0.6490 os         1 21N      -0.454000
     17 C6          -4.4610     0.1340    -2.6760 c3         1 21N       0.172600
     18 O6          -4.4860    -1.2540    -3.0720 oh         1 21N      -0.704000
     19 C7          -1.7250    -2.4720     1.1610 cs         1 21N       0.490400
     20 C8           1.3950    -2.0590     0.1540 ce         1 21N       0.400800
     21 C9           2.5850    -1.1630     0.0300 ca         1 21N      -0.104900
     22 C10          3.2730    -1.0930    -1.1980 ca         1 21N      -0.091500
     23 C11          4.3930    -0.2570    -1.3470 ca         1 21N      -0.062000
     24 C12          4.8470     0.5330    -0.2690 ca         1 21N      -0.184300
     25 C13          4.1640     0.4570     0.9640 ca         1 21N      -0.062000
     26 C14          3.0440    -0.3790     1.1110 ca         1 21N      -0.091500
     27 C15          6.0750     1.4370    -0.4260 c3         1 21N       0.357300
     28 H1          -3.8730    -0.7920     1.2770 h2         1 21N       0.106700
     29 HN1         -0.9130    -0.6370     1.0450 hn         1 21N       0.332500
     30 H2          -1.9540     1.5750     0.7630 h1         1 21N       0.052700
     31 HN2         -0.3570    -3.9470     1.4040 hn         1 21N       0.351500
     32 HO2         -1.9210     0.7110     2.9640 ho         1 21N       0.516000
     33 H3          -4.9700     1.5300     1.2940 h1         1 21N       0.061700
     34 HO3         -3.5270     3.3040     2.0880 ho         1 21N       0.467000
     35 H4          -3.3950     2.2810    -1.2270 h1         1 21N       0.052700
     36 HO4         -5.4360     3.4050    -0.5890 ho         1 21N       0.526000
     37 H5          -5.2460    -0.1140    -0.6640 h1         1 21N       0.071700
     38 H6          -5.3710     0.6370    -3.0300 h1         1 21N       0.035700
     39 H6A         -3.6070     0.6420    -3.1450 h1         1 21N       0.035700
     40 HO6         -4.4850    -1.2730    -4.0570 ho         1 21N       0.503000
     41 H8           1.1110    -2.6260    -0.7360 h4         1 21N      -0.000200
     42 H10          2.9400    -1.6900    -2.0450 ha         1 21N       0.126500
     43 H11          4.9080    -0.2290    -2.3050 ha         1 21N       0.134500
     44 H13          4.4990     1.0440     1.8170 ha         1 21N       0.134500
     45 H14          2.5370    -0.4160     2.0730 ha         1 21N       0.126500
@<TRIPOS>BOND
     1     1     3 1   
     2     1     5 1   
     3     1    16 1   
     4     1    28 1   
     5     2    27 1   
     6     3    19 1   
     7     3    29 1   
     8     4    19 2   
     9     5     8 1   
    10     5     9 1   
    11     5    30 1   
    12     6    27 1   
    13     7    11 1   
    14     7    19 1   
    15     7    31 1   
    16     8    32 1   
    17     9    12 1   
    18     9    13 1   
    19     9    33 1   
    20    10    27 1   
    21    11    20 2   
    22    12    34 1   
    23    13    14 1   
    24    13    15 1   
    25    13    35 1   
    26    14    36 1   
    27    15    16 1   
    28    15    17 1   
    29    15    37 1   
    30    17    18 1   
    31    17    38 1   
    32    17    39 1   
    33    18    40 1   
    34    20    21 1   
    35    20    41 1   
    36    21    22 ar  
    37    21    26 ar  
    38    22    23 ar  
    39    22    42 1   
    40    23    24 ar  
    41    23    43 1   
    42    24    25 ar  
    43    24    27 1   
    44    25    26 ar  
    45    25    44 1   
    46    26    45 1   
@<TRIPOS>SUBSTRUCTURE
     1 21N         1 TEMP              0 ****  ****    0 ROOT
