@<TRIPOS>MOLECULE
21N
   45    46     1     0     0
SMALL
abcg2


@<TRIPOS>ATOM
      1 C1          -3.0360    -0.2540     0.4740 c6         1 21N       0.299700
      2 F1           6.3520     1.9400    -1.5730 f          1 21N      -0.111667
      3 N1          -1.7590    -0.8880     0.4970 ns         1 21N      -0.428900
      4 S1          -2.7700    -3.3570     0.7740 s          1 21N      -0.600400
      5 C2          -2.9770     1.0910     1.2010 c6         1 21N       0.101300
      6 F2           7.6070     0.6070    -0.4420 f          1 21N      -0.111667
      7 N2          -0.2820    -2.6210     0.4870 ns         1 21N      -0.226900
      8 O2          -2.6990     0.9260     2.5680 oh         1 21N      -0.713000
      9 C3          -4.3380     1.7640     1.0870 c6         1 21N       0.138300
     10 F3           6.5190     2.1740     0.5550 f          1 21N      -0.111667
     11 N3           0.7170    -1.7430     0.3330 n2         1 21N      -0.476300
     12 O3          -4.3240     3.0730     1.6030 oh         1 21N      -0.665000
     13 C4          -4.7770     1.8530    -0.3700 c6         1 21N       0.141300
     14 O4          -6.0960     2.3280    -0.4750 oh         1 21N      -0.714000
     15 C5          -4.7120     0.4670    -1.0140 c6         1 21N       0.179300
     16 O5          -3.4100    -0.0620    -0.8680 os         1 21N      -0.454000
     17 C6          -5.0280     0.5200    -2.4930 c3         1 21N       0.172600
     18 O6          -5.0260    -0.7910    -3.0060 oh         1 21N      -0.704000
     19 C7          -1.5690    -2.2120     0.5720 cs         1 21N       0.490400
     20 C8           1.9050    -2.1910     0.2580 ce         1 21N       0.400800
     21 C9           3.0410    -1.2920     0.0920 ca         1 21N      -0.104900
     22 C10          4.3150    -1.8420    -0.0210 ca         1 21N      -0.091500
     23 C11          5.4280    -1.0300    -0.1830 ca         1 21N      -0.062000
     24 C12          5.2710     0.3470    -0.2320 ca         1 21N      -0.184300
     25 C13          3.9990     0.9090    -0.1180 ca         1 21N      -0.062000
     26 C14          2.8950     0.0980     0.0430 ca         1 21N      -0.091500
     27 C15          6.4410     1.2590    -0.4210 c3         1 21N       0.357300
     28 H1          -3.7510    -0.9130     0.9830 h2         1 21N       0.106700
     29 HN1         -0.9420    -0.3220     0.3010 hn         1 21N       0.332500
     30 H2          -2.2240     1.7260     0.7080 h1         1 21N       0.052700
     31 HN2         -0.1020    -3.6180     0.5490 hn         1 21N       0.351500
     32 HO2         -1.7630     0.7360     2.6800 ho         1 21N       0.516000
     33 H3          -5.0700     1.1400     1.6230 h1         1 21N       0.061700
     34 HO3         -4.2450     3.0240     2.5610 ho         1 21N       0.467000
     35 H4          -4.0750     2.5140    -0.9050 h1         1 21N       0.052700
     36 HO4         -6.1470     3.1680    -0.0070 ho         1 21N       0.526000
     37 H5          -5.4430    -0.1890    -0.5130 h1         1 21N       0.071700
     38 H6          -6.0030     1.0020    -2.6210 h1         1 21N       0.035700
     39 H6A         -4.2840     1.1560    -2.9930 h1         1 21N       0.035700
     40 HO6         -5.3180    -0.7490    -3.9210 ho         1 21N       0.503000
     41 H8           2.1220    -3.2590     0.3130 h4         1 21N      -0.000200
     42 H10          4.4430    -2.9160     0.0170 ha         1 21N       0.126500
     43 H11          6.4030    -1.4870    -0.2710 ha         1 21N       0.134500
     44 H13          3.8630     1.9820    -0.1530 ha         1 21N       0.134500
     45 H14          1.9130     0.5440     0.1330 ha         1 21N       0.126500
@<TRIPOS>BOND
     1     1     3 1   
     2     1     5 1   
     3     1    16 1   
     4     1    28 1   
     5     2    27 1   
     6     3    19 1   
     7     3    29 1   
     8     4    19 2   
     9     5     8 1   
    10     5     9 1   
    11     5    30 1   
    12     6    27 1   
    13     7    11 1   
    14     7    19 1   
    15     7    31 1   
    16     8    32 1   
    17     9    12 1   
    18     9    13 1   
    19     9    33 1   
    20    10    27 1   
    21    11    20 2   
    22    12    34 1   
    23    13    14 1   
    24    13    15 1   
    25    13    35 1   
    26    14    36 1   
    27    15    16 1   
    28    15    17 1   
    29    15    37 1   
    30    17    18 1   
    31    17    38 1   
    32    17    39 1   
    33    18    40 1   
    34    20    21 1   
    35    20    41 1   
    36    21    22 ar  
    37    21    26 ar  
    38    22    23 ar  
    39    22    42 1   
    40    23    24 ar  
    41    23    43 1   
    42    24    25 ar  
    43    24    27 1   
    44    25    26 ar  
    45    25    44 1   
    46    26    45 1   
@<TRIPOS>SUBSTRUCTURE
     1 21N         1 TEMP              0 ****  ****    0 ROOT
