@<TRIPOS>MOLECULE
21O
   40    41     1     0     0
SMALL
No Charge or Current Charge


@<TRIPOS>ATOM
      1 O43         -2.1350    -3.1190    -0.1690 o          1 21O      -0.763750
      2 C41         -2.5910    -2.0120    -0.4130 c          1 21O       0.734000
      3 O42         -3.7710    -1.8340    -0.6680 o          1 21O      -0.763750
      4 CAW         -1.6360    -0.8270    -0.3390 c3         1 21O      -0.308700
      5 CAR         -1.4090    -0.2830    -1.7460 c          1 21O       0.734000
      6 OAE         -0.2970    -0.4250    -2.2290 o          1 21O      -0.763750
      7 OAB         -2.3150     0.2700    -2.3470 o          1 21O      -0.763750
      8 CAX         -1.9800     0.2250     0.7710 c3         1 21O       0.041600
      9 CAV         -3.2690     1.0400     0.5450 ca         1 21O       0.015700
     10 CAJ         -4.4720     0.6310     1.1620 ca         1 21O      -0.097500
     11 CAH         -5.6480     1.3890     1.0210 ca         1 21O      -0.138000
     12 CAG         -5.6370     2.5710     0.2670 ca         1 21O      -0.157000
     13 CAI         -4.4480     2.9960    -0.3460 ca         1 21O      -0.138000
     14 CAK         -3.2710     2.2390    -0.2060 ca         1 21O      -0.097500
     15 CAP         -0.7750     1.1540     1.1070 c3         1 21O      -0.152400
     16 CAS          0.3760     0.3950     1.8000 c          1 21O       0.632700
     17 OAC          0.2460     0.0440     2.9690 o          1 21O      -0.544100
     18 CAU          1.6640     0.1000     1.0590 ca         1 21O      -0.061600
     19 CAO          2.3970    -1.0610     1.3880 ca         1 21O      -0.068500
     20 CAM          3.6040    -1.3610     0.7340 ca         1 21O      -0.087500
     21 CAT          4.1180    -0.5000    -0.2570 ca         1 21O      -0.210300
     22 C36          5.4310    -0.8310    -0.9770 c3         1 21O       0.351300
     23 F39          5.2110    -1.5820    -2.0790 f          1 21O      -0.127667
     24 F38          6.0920     0.2790    -1.3810 f          1 21O      -0.127667
     25 F37          6.2880    -1.5240    -0.1920 f          1 21O      -0.127667
     26 CAL          3.3890     0.6620    -0.5870 ca         1 21O      -0.087500
     27 CAN          2.1810     0.9630     0.0650 ca         1 21O      -0.068500
     28 HAW         -0.6740    -1.2630    -0.0420 hc         1 21O       0.038700
     29 HAX         -2.1480    -0.3650     1.6820 hc         1 21O       0.039700
     30 HAP1        -0.4370     1.6200     0.1790 hc         1 21O       0.043200
     31 HAP2        -1.1260     1.9300     1.7980 hc         1 21O       0.043200
     32 HAJ         -4.4950    -0.2810     1.7550 ha         1 21O       0.137000
     33 HAK         -2.3620     2.5860    -0.6890 ha         1 21O       0.137000
     34 HAH         -6.5670     1.0580     1.5000 ha         1 21O       0.077000
     35 HAG         -6.5460     3.1570     0.1580 ha         1 21O       0.069000
     36 HAI         -4.4360     3.9130    -0.9300 ha         1 21O       0.077000
     37 HAO          2.0260    -1.7420     2.1510 ha         1 21O       0.133500
     38 HAN          1.6680     1.8830    -0.2010 ha         1 21O       0.133500
     39 HAM          4.1380    -2.2700     1.0030 ha         1 21O       0.108000
     40 HAL          3.7580     1.3430    -1.3510 ha         1 21O       0.108000
@<TRIPOS>BOND
     1     1     2 1   
     2     2     3 1   
     3     2     4 1   
     4     4     5 1   
     5     4     8 1   
     6     4    28 1   
     7     5     6 1   
     8     5     7 1   
     9     8     9 1   
    10     8    15 1   
    11     8    29 1   
    12     9    10 ar  
    13     9    14 ar  
    14    10    11 ar  
    15    10    32 1   
    16    11    12 ar  
    17    11    34 1   
    18    12    13 ar  
    19    12    35 1   
    20    13    14 ar  
    21    13    36 1   
    22    14    33 1   
    23    15    16 1   
    24    15    30 1   
    25    15    31 1   
    26    16    17 2   
    27    16    18 1   
    28    18    19 ar  
    29    18    27 ar  
    30    19    20 ar  
    31    19    37 1   
    32    20    21 ar  
    33    20    39 1   
    34    21    22 1   
    35    21    26 ar  
    36    22    23 1   
    37    22    24 1   
    38    22    25 1   
    39    26    27 ar  
    40    26    40 1   
    41    27    38 1   
@<TRIPOS>SUBSTRUCTURE
     1 21O         1 TEMP              0 ****  ****    0 ROOT
