@<TRIPOS>MOLECULE
21P
   52    55     1     0     0
SMALL
No Charge or Current Charge


@<TRIPOS>ATOM
      1 C11         -0.5150    -1.0440    -1.6200 ca         1 21P      -0.080000
      2 C14          0.8400    -3.9360    -0.3490 c5         1 21P       0.119100
      3 C9          -0.8600    -0.5570     0.7430 ca         1 21P      -0.049000
      4 C13          1.3250    -1.7160     0.0470 c5         1 21P       0.483600
      5 C8          -2.1080     0.0060     0.4260 ca         1 21P      -0.375000
      6 C12         -1.7660    -0.4750    -1.9310 ca         1 21P      -0.087000
      7 C19          4.4950     1.3230    -0.1450 ca         1 21P      -0.118600
      8 C3          -4.7610     1.0950     0.6220 c5         1 21P      -0.084400
      9 C18          4.1570     0.5540    -1.2820 ca         1 21P      -0.096000
     10 C21          2.7730     0.1130     1.1140 ca         1 21P      -0.111000
     11 C20          3.7840     1.0880     1.0540 ca         1 21P      -0.096000
     12 C10         -0.0510    -1.1030    -0.2820 ca         1 21P      -0.115300
     13 C16          2.4450    -0.6630    -0.0180 ca         1 21P      -0.117300
     14 C17          3.1450    -0.4200    -1.2180 ca         1 21P      -0.111000
     15 O2           6.1760     2.5500    -1.2720 o          1 21P      -0.720000
     16 O1           5.8480     3.0210     0.7980 o          1 21P      -0.720000
     17 O4           1.3190    -2.3580     1.3390 os         1 21P      -0.443500
     18 C15          0.6260    -3.6120     1.1580 c5         1 21P       0.119100
     19 O3           1.6260    -2.8230    -0.8280 os         1 21P      -0.443500
     20 SI1         -3.2510     0.7420     1.6590 s6         1 21P       0.206000
     21 C2          -2.4620     2.2270     2.3280 c3         1 21P      -0.118600
     22 C7          -2.5580     0.0450    -0.8970 ca         1 21P      -0.367000
     23 SI2         -4.2050     0.8230    -1.1370 s6         1 21P       0.207000
     24 H11          0.0980    -1.4400    -2.4260 ha         1 21P       0.123000
     25 H14          1.3870    -4.8740    -0.5120 h1         1 21P       0.047200
     26 H14A        -0.1130    -3.9740    -0.8940 h1         1 21P       0.047200
     27 H9          -0.5180    -0.5720     1.7760 ha         1 21P       0.119000
     28 H5          -6.2410     0.1650    -2.2140 h1         1 21P       0.051533
     29 H5A         -4.7870    -0.4660    -3.0700 h1         1 21P       0.051533
     30 H5B         -5.3410    -1.2450    -1.5430 h1         1 21P       0.051533
     31 H1          -2.5540    -0.6530     3.4770 h1         1 21P       0.053867
     32 H1A         -4.2180    -0.0070     3.7190 h1         1 21P       0.053867
     33 H1B         -3.9360    -1.3640     2.5670 h1         1 21P       0.053867
     34 H12         -2.1080    -0.4400    -2.9630 ha         1 21P       0.100000
     35 H3          -5.5170     0.3390     0.8580 h2         1 21P       0.077200
     36 H3A         -5.0690     2.1360     0.7580 h2         1 21P       0.077200
     37 H6          -4.9410     2.8320    -2.2140 h1         1 21P       0.051533
     38 H6A         -3.2990     3.0090    -1.4950 h1         1 21P       0.051533
     39 H6B         -3.5120     2.1050    -3.0380 h1         1 21P       0.051533
     40 H18          4.6770     0.7110    -2.2240 ha         1 21P       0.128000
     41 H21          2.2400    -0.0370     2.0490 ha         1 21P       0.096000
     42 H20          4.0110     1.6650     1.9480 ha         1 21P       0.128000
     43 H17          2.9050    -0.9880    -2.1140 ha         1 21P       0.096000
     44 H15         -0.4390    -3.4810     1.3960 h1         1 21P       0.047200
     45 H15A         1.0540    -4.3730     1.8240 h1         1 21P       0.047200
     46 H2          -2.2750     2.9210     1.5000 h1         1 21P       0.053867
     47 H2A         -3.1380     2.6790     3.0630 h1         1 21P       0.053867
     48 H2B         -1.5180     1.9350     2.8030 h1         1 21P       0.053867
     49 C5          -5.2550    -0.2990    -2.0930 c3         1 21P      -0.120100
     50 C1          -3.5180    -0.4470     2.9980 c3         1 21P      -0.118600
     51 C6          -3.9640     2.3550    -2.0700 c3         1 21P      -0.120100
     52 C22          5.5890     2.3790    -0.2110 c          1 21P       0.711600
@<TRIPOS>BOND
     1     1     6 ar  
     2     1    12 ar  
     3     1    24 1   
     4     2    18 1   
     5     2    19 1   
     6     2    25 1   
     7     2    26 1   
     8     3     5 ar  
     9     3    12 ar  
    10     3    27 1   
    11     4    12 1   
    12     4    13 1   
    13     4    17 1   
    14     4    19 1   
    15     5    20 2   
    16     5    22 ar  
    17     6    22 ar  
    18     6    34 1   
    19     7     9 ar  
    20     7    11 ar  
    21     7    52 1   
    22     8    20 1   
    23     8    23 1   
    24     8    35 1   
    25     8    36 1   
    26     9    14 ar  
    27     9    40 1   
    28    10    11 ar  
    29    10    13 ar  
    30    10    41 1   
    31    11    42 1   
    32    13    14 ar  
    33    14    43 1   
    34    15    52 1   
    35    16    52 1   
    36    17    18 1   
    37    18    44 1   
    38    18    45 1   
    39    20    21 1   
    40    20    50 1   
    41    21    46 1   
    42    21    47 1   
    43    21    48 1   
    44    22    23 2   
    45    23    49 1   
    46    23    51 1   
    47    28    49 1   
    48    29    49 1   
    49    30    49 1   
    50    31    50 1   
    51    32    50 1   
    52    33    50 1   
    53    37    51 1   
    54    38    51 1   
    55    39    51 1   
@<TRIPOS>SUBSTRUCTURE
     1 21P         1 TEMP              0 ****  ****    0 ROOT
