@<TRIPOS>MOLECULE
21Q
   56    57     1     0     0
SMALL
No Charge or Current Charge


@<TRIPOS>ATOM
      1 C1           4.0160     2.5740     1.0550 c3         1 21Q      -0.085100
      2 C2           3.8770     2.0970    -0.4060 c3         1 21Q      -0.029100
      3 C3           3.9680     0.5880    -0.5510 cc         1 21Q      -0.000300
      4 N6           3.4330    -1.5810    -0.6510 na         1 21Q      -0.096000
      5 C7           2.9110    -0.3000    -0.4200 cd         1 21Q      -0.274600
      6 C8           1.4850     0.0320    -0.0830 c          1 21Q       0.648700
      7 C11         -0.7100    -1.2910     0.2310 ca         1 21Q      -0.065000
      8 C12         -1.5830    -0.2440     0.6100 ca         1 21Q      -0.010000
      9 C13         -2.9460    -0.5130     0.8660 ca         1 21Q      -0.313500
     10 C14         -3.4400    -1.8250     0.7470 ca         1 21Q      -0.001000
     11 C15         -2.5750    -2.8650     0.3760 ca         1 21Q      -0.201000
     12 C16         -1.2210    -2.6020     0.1210 ca         1 21Q       0.133100
     13 O17         -0.3970    -3.6310    -0.2400 oh         1 21Q      -0.551100
     14 C22         -4.0880     1.0410    -1.3490 c3         1 21Q       0.212300
     15 C24         -5.6610     2.4770    -0.0570 c3         1 21Q       0.212300
     16 O28          7.4720    -0.5440    -1.3010 o          1 21Q      -0.558100
     17 C4           5.1550    -0.1810    -0.8420 cc         1 21Q      -0.268600
     18 C5           4.7960    -1.5130    -0.9020 cd         1 21Q      -0.058300
     19 C26          5.6080    -2.7590    -1.1700 c3         1 21Q      -0.037800
     20 C29          7.0150     1.7300    -0.9720 c3         1 21Q      -0.191100
     21 C23         -4.8610     1.1770    -2.6770 c3         1 21Q      -0.096100
     22 C25         -6.7310     2.5810     1.0500 c3         1 21Q      -0.096100
     23 N10          0.6760    -1.0960    -0.0460 ns         1 21Q      -0.153000
     24 N21         -4.9070     1.1940    -0.1150 n3         1 21Q      -0.746500
     25 O9           1.0710     1.1620     0.1390 o          1 21Q      -0.563100
     26 O19         -5.0600     0.2460     2.2490 o          1 21Q      -0.532000
     27 O20         -3.2740     2.0070     1.6850 o          1 21Q      -0.532000
     28 S18         -4.0670     0.8230     1.3360 sy         1 21Q       1.167600
     29 H1           3.1920     2.1890     1.6660 hc         1 21Q       0.036033
     30 H2           4.9550     2.2260     1.4990 hc         1 21Q       0.036033
     31 H3           3.9950     3.6700     1.1040 hc         1 21Q       0.036033
     32 H4           2.9210     2.4550    -0.7990 hc         1 21Q       0.064200
     33 H5           4.5930     2.6170    -1.0410 hc         1 21Q       0.064200
     34 H6           2.9080    -2.4500    -0.6290 hn         1 21Q       0.348000
     35 H7          -1.2210     0.7750     0.7080 ha         1 21Q       0.172000
     36 H8          -4.4910    -2.0400     0.9360 ha         1 21Q       0.134000
     37 H9          -2.9670    -3.8750     0.2870 ha         1 21Q       0.119000
     38 H10         -0.9270    -4.4580    -0.2640 ho         1 21Q       0.481000
     39 H11         -3.6440     0.0400    -1.3880 h1         1 21Q       0.044700
     40 H12         -3.2600     1.7630    -1.3480 h1         1 21Q       0.044700
     41 H13         -6.2020     2.6330    -0.9970 h1         1 21Q       0.044700
     42 H14         -4.9660     3.3220     0.0460 h1         1 21Q       0.044700
     43 H15          6.0800    -2.7190    -2.1590 hc         1 21Q       0.060033
     44 H16          6.3980    -2.8850    -0.4200 hc         1 21Q       0.060033
     45 H17          4.9860    -3.6610    -1.1430 hc         1 21Q       0.060033
     46 H18          8.1050     1.8400    -1.0080 hc         1 21Q       0.060367
     47 H19          6.5660     2.2740    -1.8080 hc         1 21Q       0.060367
     48 H20          6.6050     2.2000    -0.0760 hc         1 21Q       0.060367
     49 H21         -5.7600     0.5490    -2.6670 hc         1 21Q       0.046033
     50 H22         -5.1540     2.2160    -2.8670 hc         1 21Q       0.046033
     51 H23         -4.2280     0.8550    -3.5110 hc         1 21Q       0.046033
     52 H24         -7.3940     1.7080     1.0300 hc         1 21Q       0.046033
     53 H25         -6.2790     2.6620     2.0450 hc         1 21Q       0.046033
     54 H26         -7.3440     3.4760     0.8930 hc         1 21Q       0.046033
     55 H27          1.1550    -1.9580    -0.2620 hn         1 21Q       0.161000
     56 C27          6.5860     0.2650    -1.0540 c          1 21Q       0.613700
@<TRIPOS>BOND
     1     1     2 1   
     2     1    29 1   
     3     1    30 1   
     4     1    31 1   
     5     2     3 1   
     6     2    32 1   
     7     2    33 1   
     8     3     5 2   
     9     3    17 1   
    10     4     5 1   
    11     4    18 1   
    12     4    34 1   
    13     5     6 1   
    14     6    23 1   
    15     6    25 2   
    16     7     8 ar  
    17     7    12 ar  
    18     7    23 1   
    19     8     9 ar  
    20     8    35 1   
    21     9    10 ar  
    22     9    28 1   
    23    10    11 ar  
    24    10    36 1   
    25    11    12 ar  
    26    11    37 1   
    27    12    13 1   
    28    13    38 1   
    29    14    21 1   
    30    14    24 1   
    31    14    39 1   
    32    14    40 1   
    33    15    22 1   
    34    15    24 1   
    35    15    41 1   
    36    15    42 1   
    37    16    56 2   
    38    17    18 2   
    39    17    56 1   
    40    18    19 1   
    41    19    43 1   
    42    19    44 1   
    43    19    45 1   
    44    20    46 1   
    45    20    47 1   
    46    20    48 1   
    47    20    56 1   
    48    21    49 1   
    49    21    50 1   
    50    21    51 1   
    51    22    52 1   
    52    22    53 1   
    53    22    54 1   
    54    23    55 1   
    55    24    28 1   
    56    26    28 2   
    57    27    28 2   
@<TRIPOS>SUBSTRUCTURE
     1 21Q         1 TEMP              0 ****  ****    0 ROOT
