@<TRIPOS>MOLECULE
21Q
   56    57     1     0     0
SMALL
abcg2


@<TRIPOS>ATOM
      1 C1           4.2650     1.3870     2.5600 c3         1 21Q      -0.085100
      2 C2           3.8700     1.9640     1.2000 c3         1 21Q      -0.029100
      3 C3           3.8930     0.9270     0.1190 cc         1 21Q      -0.000300
      4 N6           3.2590    -0.7460    -1.2080 na         1 21Q      -0.096000
      5 C7           2.8110     0.1690    -0.2790 cd         1 21Q      -0.274600
      6 C8           1.4170     0.2170     0.1740 c          1 21Q       0.648700
      7 C11         -0.6290    -1.1740     0.2780 ca         1 21Q      -0.065000
      8 C12         -1.5800    -0.1780     0.4600 ca         1 21Q      -0.010000
      9 C13         -2.9000    -0.5210     0.7340 ca         1 21Q      -0.313500
     10 C14         -3.2980    -1.8450     0.8310 ca         1 21Q      -0.001000
     11 C15         -2.3570    -2.8410     0.6370 ca         1 21Q      -0.201000
     12 C16         -1.0350    -2.5190     0.3660 ca         1 21Q       0.133100
     13 O17         -0.0820    -3.4440     0.1800 oh         1 21Q      -0.551100
     14 C22         -5.7900    -0.0770    -0.9720 c3         1 21Q       0.212300
     15 C24         -4.0640     1.6080    -1.5930 c3         1 21Q       0.212300
     16 O28          7.2750     0.1620    -1.1470 o          1 21Q      -0.558100
     17 C4           5.0240     0.4270    -0.6010 cc         1 21Q      -0.268600
     18 C5           4.5710    -0.6090    -1.4250 cd         1 21Q      -0.058300
     19 C26          5.2640    -1.4590    -2.4280 c3         1 21Q      -0.037800
     20 C29          6.8370     2.1180     0.0990 c3         1 21Q      -0.191100
     21 C23         -6.9440     0.5360    -1.7440 c3         1 21Q      -0.096100
     22 C25         -4.3580     3.0910    -1.7100 c3         1 21Q      -0.096100
     23 N10          0.7160    -0.9420    -0.0110 ns         1 21Q      -0.153000
     24 N21         -4.8440     0.9520    -0.5330 n3         1 21Q      -0.746500
     25 O9           0.9250     1.2140     0.6770 o          1 21Q      -0.563100
     26 O19         -5.1040     0.2990     1.8680 o          1 21Q      -0.532000
     27 O20         -3.3850     2.0010     1.1930 o          1 21Q      -0.532000
     28 S18         -4.1020     0.7640     0.9220 sy         1 21Q       1.167600
     29 H1           3.5640     0.6100     2.8700 hc         1 21Q       0.036033
     30 H2           5.2590     0.9380     2.5380 hc         1 21Q       0.036033
     31 H3           4.2640     2.1630     3.3250 hc         1 21Q       0.036033
     32 H4           2.8730     2.3900     1.2710 hc         1 21Q       0.064200
     33 H5           4.5290     2.7910     0.9440 hc         1 21Q       0.064200
     34 H6           2.6760    -1.3590    -1.7570 hn         1 21Q       0.348000
     35 H7          -1.2920     0.8590     0.4020 ha         1 21Q       0.172000
     36 H8          -4.3180    -2.1160     1.0670 ha         1 21Q       0.134000
     37 H9          -2.6500    -3.8810     0.7140 ha         1 21Q       0.119000
     38 H10         -0.4440    -4.3360     0.2270 ho         1 21Q       0.481000
     39 H11         -6.1870    -0.5920    -0.1000 h1         1 21Q       0.044700
     40 H12         -5.2750    -0.8250    -1.5850 h1         1 21Q       0.044700
     41 H13         -4.3140     1.1050    -2.5280 h1         1 21Q       0.044700
     42 H14         -2.9920     1.4400    -1.4550 h1         1 21Q       0.044700
     43 H15          5.8240    -0.8570    -3.1410 hc         1 21Q       0.060033
     44 H16          5.9740    -2.1330    -1.9500 hc         1 21Q       0.060033
     45 H17          4.5450    -2.0620    -2.9800 hc         1 21Q       0.060033
     46 H18          7.8920     2.3120    -0.0830 hc         1 21Q       0.060367
     47 H19          6.2540     2.9650    -0.2660 hc         1 21Q       0.060367
     48 H20          6.6810     2.0590     1.1760 hc         1 21Q       0.060367
     49 H21         -7.4910     1.2460    -1.1240 hc         1 21Q       0.046033
     50 H22         -6.6100     1.0510    -2.6450 hc         1 21Q       0.046033
     51 H23         -7.6330    -0.2510    -2.0530 hc         1 21Q       0.046033
     52 H24         -5.4160     3.2650    -1.9050 hc         1 21Q       0.046033
     53 H25         -4.0860     3.6220    -0.8000 hc         1 21Q       0.046033
     54 H26         -3.7880     3.5180    -2.5350 hc         1 21Q       0.046033
     55 H27          1.2430    -1.7720    -0.2340 hn         1 21Q       0.161000
     56 C27          6.4300     0.8400    -0.5860 c          1 21Q       0.613700
@<TRIPOS>BOND
     1     1     2 1   
     2     1    29 1   
     3     1    30 1   
     4     1    31 1   
     5     2     3 1   
     6     2    32 1   
     7     2    33 1   
     8     3     5 2   
     9     3    17 1   
    10     4     5 1   
    11     4    18 1   
    12     4    34 1   
    13     5     6 1   
    14     6    23 1   
    15     6    25 2   
    16     7     8 ar  
    17     7    12 ar  
    18     7    23 1   
    19     8     9 ar  
    20     8    35 1   
    21     9    10 ar  
    22     9    28 1   
    23    10    11 ar  
    24    10    36 1   
    25    11    12 ar  
    26    11    37 1   
    27    12    13 1   
    28    13    38 1   
    29    14    21 1   
    30    14    24 1   
    31    14    39 1   
    32    14    40 1   
    33    15    22 1   
    34    15    24 1   
    35    15    41 1   
    36    15    42 1   
    37    16    56 2   
    38    17    18 2   
    39    17    56 1   
    40    18    19 1   
    41    19    43 1   
    42    19    44 1   
    43    19    45 1   
    44    20    46 1   
    45    20    47 1   
    46    20    48 1   
    47    20    56 1   
    48    21    49 1   
    49    21    50 1   
    50    21    51 1   
    51    22    52 1   
    52    22    53 1   
    53    22    54 1   
    54    23    55 1   
    55    24    28 1   
    56    26    28 2   
    57    27    28 2   
@<TRIPOS>SUBSTRUCTURE
     1 21Q         1 TEMP              0 ****  ****    0 ROOT
