@<TRIPOS>MOLECULE
21R
   51    52     1     0     0
SMALL
abcg2


@<TRIPOS>ATOM
      1 C13         29.8690    36.7860   -29.8990 ca         1 21R       0.172000
      2 C15         31.2030    36.9340   -29.5460 ca         1 21R       0.072000
      3 C17         31.5130    37.2810   -28.2330 ca         1 21R      -0.056000
      4 C20         30.7510    39.3770   -25.5990 c3         1 21R      -0.091100
      5 C22         27.8700    34.6870   -25.4570 c6         1 21R       0.103500
      6 C24         31.8420    32.0060   -23.9680 c3         1 21R      -0.349400
      7 O01         32.9520    31.2670   -26.2360 o          1 21R      -0.534000
      8 S02         31.6390    31.4070   -25.6430 s6         1 21R       1.221100
      9 N03         30.8710    32.5620   -26.4950 n7         1 21R      -0.905300
     10 C04         29.4620    32.9090   -26.2430 c6         1 21R       0.237500
     11 C05         28.6660    32.8380   -27.5460 c6         1 21R      -0.112900
     12 C06         27.2150    33.2670   -27.3280 c6         1 21R       0.103500
     13 N07         27.1820    34.6060   -26.7420 n          1 21R      -0.410800
     14 C08         26.5960    35.6260   -27.3990 c          1 21R       0.574100
     15 C09         26.8130    37.0670   -26.9000 c3         1 21R       0.146800
     16 C11         29.1780    37.3100   -27.6350 ca         1 21R       0.337000
     17 C12         28.8660    36.9730   -28.9590 ca         1 21R      -0.176000
     18 CL1         29.4070    36.3500   -31.5240 cl         1 21R      -0.175000
     19 CL2         32.4940    36.6890   -30.6930 cl         1 21R      -0.180000
     20 C18         30.5370    37.4760   -27.2690 ca         1 21R      -0.159300
     21 C19         30.9370    37.8770   -25.8720 c3         1 21R      -0.025100
     22 O21         25.9060    35.4540   -28.4090 o          1 21R      -0.596100
     23 C23         29.3380    34.2900   -25.6000 c6         1 21R      -0.112900
     24 C25         32.5410    30.9870   -23.0790 c3         1 21R      -0.058100
     25 O26         30.7660    30.2530   -25.5990 o          1 21R      -0.534000
     26 H171        32.5530    37.3940   -27.9580 ha         1 21R       0.128000
     27 H201        31.0390    39.6170   -24.5740 hc         1 21R       0.040367
     28 H202        31.3730    39.9650   -26.2760 hc         1 21R       0.040367
     29 H203        29.7150    39.6860   -25.7410 hc         1 21R       0.040367
     30 H221        27.7740    35.6780   -25.0310 h1         1 21R       0.059200
     31 H222        27.3700    33.9930   -24.7730 h1         1 21R       0.059200
     32 H241        32.4060    32.9350   -24.0560 h1         1 21R       0.082200
     33 H242        30.8380    32.2360   -23.6090 h1         1 21R       0.082200
     34 H031        31.4770    33.3330   -26.7520 hn         1 21R       0.492000
     35 H041        29.0640    32.1590   -25.5570 h1         1 21R       0.065700
     36 H051        29.1280    33.4970   -28.2860 hc         1 21R       0.063450
     37 H052        28.6950    31.8200   -27.9370 hc         1 21R       0.063450
     38 H061        26.6680    33.2870   -28.2640 h1         1 21R       0.059200
     39 H062        26.7110    32.5730   -26.6490 h1         1 21R       0.059200
     40 H091        26.3250    37.6950   -27.6470 h1         1 21R       0.076700
     41 H092        26.2840    37.2100   -25.9580 h1         1 21R       0.076700
     42 H101        28.4790    37.5950   -25.7470 hn         1 21R       0.484000
     43 H121        27.8410    36.8460   -29.2690 ha         1 21R       0.151000
     44 H191        31.9840    37.6120   -25.7230 hc         1 21R       0.037700
     45 H192        30.3730    37.2980   -25.1340 hc         1 21R       0.037700
     46 H231        29.8550    35.0200   -26.2260 hc         1 21R       0.063450
     47 H232        29.8140    34.2950   -24.6180 hc         1 21R       0.063450
     48 H251        32.6380    31.3990   -22.0740 hc         1 21R       0.052367
     49 H253        31.9680    30.0620   -23.0150 hc         1 21R       0.052367
     50 H2          33.5390    30.7580   -23.4520 hc         1 21R       0.052367
     51 N10         28.1850    37.4760   -26.6990 nu         1 21R      -0.973200
@<TRIPOS>BOND
     1     1     2 ar  
     2     1    17 ar  
     3     1    18 1   
     4     2     3 ar  
     5     2    19 1   
     6     3    20 ar  
     7     3    26 1   
     8     4    21 1   
     9     4    27 1   
    10     4    28 1   
    11     4    29 1   
    12     5    13 1   
    13     5    23 1   
    14     5    30 1   
    15     5    31 1   
    16     6     8 1   
    17     6    24 1   
    18     6    32 1   
    19     6    33 1   
    20     7     8 2   
    21     8     9 1   
    22     8    25 2   
    23     9    10 1   
    24     9    34 1   
    25    10    11 1   
    26    10    23 1   
    27    10    35 1   
    28    11    12 1   
    29    11    36 1   
    30    11    37 1   
    31    12    13 1   
    32    12    38 1   
    33    12    39 1   
    34    13    14 1   
    35    14    15 1   
    36    14    22 2   
    37    15    40 1   
    38    15    41 1   
    39    15    51 1   
    40    16    17 ar  
    41    16    20 ar  
    42    16    51 1   
    43    17    43 1   
    44    20    21 1   
    45    21    44 1   
    46    21    45 1   
    47    23    46 1   
    48    23    47 1   
    49    24    48 1   
    50    24    49 1   
    51    24    50 1   
    52    42    51 1   
@<TRIPOS>SUBSTRUCTURE
     1 21R         1 TEMP              0 ****  ****    0 ROOT
