@<TRIPOS>MOLECULE
21R
   51    52     1     0     0
SMALL
No Charge or Current Charge


@<TRIPOS>ATOM
      1 C13         29.8470    37.3700   -30.0940 ca         1 21R       0.172000
      2 C15         31.2000    37.3570   -29.7040 ca         1 21R       0.072000
      3 C17         31.5320    37.4270   -28.3420 ca         1 21R      -0.056000
      4 C20         31.0240    39.0360   -25.3850 c3         1 21R      -0.091100
      5 C22         27.9030    34.5740   -25.4680 c6         1 21R       0.103500
      6 C24         31.7500    32.2030   -24.0180 c3         1 21R      -0.349400
      7 O01         32.9220    31.0510   -26.1320 o          1 21R      -0.534000
      8 S02         31.6010    31.2280   -25.5260 s6         1 21R       1.221100
      9 N03         30.7720    32.2380   -26.5600 n7         1 21R      -0.905300
     10 C04         29.3990    32.6600   -26.2370 c6         1 21R       0.237500
     11 C05         28.5260    32.5480   -27.5080 c6         1 21R      -0.112900
     12 C06         27.0890    33.0520   -27.2400 c6         1 21R       0.103500
     13 N07         27.1160    34.4450   -26.7220 n          1 21R      -0.410800
     14 C08         26.6750    35.5480   -27.5010 c          1 21R       0.574100
     15 C09         26.7610    37.0010   -26.9140 c3         1 21R       0.146800
     16 C11         29.1650    37.5060   -27.7600 ca         1 21R       0.337000
     17 C12         28.8390    37.4480   -29.1230 ca         1 21R      -0.176000
     18 Cl1         29.3890    37.2930   -31.7960 cl         1 21R      -0.175000
     19 Cl2         32.4950    37.2610   -30.8990 cl         1 21R      -0.180000
     20 C18         30.5230    37.5030   -27.3590 ca         1 21R      -0.159300
     21 C19         30.9420    37.5830   -25.8880 c3         1 21R      -0.025100
     22 O21         26.2040    35.3620   -28.6190 o          1 21R      -0.596100
     23 C23         29.3620    34.1150   -25.7020 c6         1 21R      -0.112900
     24 C25         32.5970    31.5050   -22.9270 c3         1 21R      -0.058100
     25 O26         30.7380    30.0680   -25.2930 o          1 21R      -0.534000
     26 H171        32.5790    37.4240   -28.0500 ha         1 21R       0.128000
     27 H201        31.3340    39.0610   -24.3340 hc         1 21R       0.040367
     28 H202        31.7540    39.6060   -25.9720 hc         1 21R       0.040367
     29 H203        30.0510    39.5340   -25.4690 hc         1 21R       0.040367
     30 H221        27.8950    35.5990   -25.0790 h1         1 21R       0.059200
     31 H222        27.4430    33.9420   -24.6940 h1         1 21R       0.059200
     32 H241        32.2050    33.1590   -24.2980 h1         1 21R       0.082200
     33 H242        30.7320    32.3690   -23.6490 h1         1 21R       0.082200
     34 H031        31.3860    33.0470   -26.5850 hn         1 21R       0.492000
     35 H041        28.9650    31.9900   -25.4780 h1         1 21R       0.065700
     36 H051        28.9720    33.1350   -28.3230 hc         1 21R       0.063450
     37 H052        28.4950    31.5050   -27.8500 hc         1 21R       0.063450
     38 H061        26.4970    32.9820   -28.1630 h1         1 21R       0.059200
     39 H062        26.6040    32.4030   -26.4980 h1         1 21R       0.059200
     40 H091        26.1530    37.6390   -27.5700 h1         1 21R       0.076700
     41 H092        26.2680    36.9930   -25.9320 h1         1 21R       0.076700
     42 H101        28.4800    37.7820   -25.8590 hn         1 21R       0.484000
     43 H121        27.8030    37.4700   -29.4400 ha         1 21R       0.151000
     44 H191        31.9230    37.1120   -25.7500 hc         1 21R       0.037700
     45 H192        30.2560    37.0180   -25.2470 hc         1 21R       0.037700
     46 H231        29.8390    34.7890   -26.4260 hc         1 21R       0.063450
     47 H232        29.9240    34.2070   -24.7650 hc         1 21R       0.063450
     48 H251        32.6530    32.1310   -22.0290 hc         1 21R       0.052367
     49 H253        32.1550    30.5420   -22.6420 hc         1 21R       0.052367
     50 H2          33.6210    31.3250   -23.2790 hc         1 21R       0.052367
     51 N10         28.1500    37.5710   -26.8020 nu         1 21R      -0.973200
@<TRIPOS>BOND
     1     1     2 ar  
     2     1    17 ar  
     3     1    18 1   
     4     2     3 ar  
     5     2    19 1   
     6     3    20 ar  
     7     3    26 1   
     8     4    21 1   
     9     4    27 1   
    10     4    28 1   
    11     4    29 1   
    12     5    13 1   
    13     5    23 1   
    14     5    30 1   
    15     5    31 1   
    16     6     8 1   
    17     6    24 1   
    18     6    32 1   
    19     6    33 1   
    20     7     8 2   
    21     8     9 1   
    22     8    25 2   
    23     9    10 1   
    24     9    34 1   
    25    10    11 1   
    26    10    23 1   
    27    10    35 1   
    28    11    12 1   
    29    11    36 1   
    30    11    37 1   
    31    12    13 1   
    32    12    38 1   
    33    12    39 1   
    34    13    14 1   
    35    14    15 1   
    36    14    22 2   
    37    15    40 1   
    38    15    41 1   
    39    15    51 1   
    40    16    17 ar  
    41    16    20 ar  
    42    16    51 1   
    43    17    43 1   
    44    20    21 1   
    45    21    44 1   
    46    21    45 1   
    47    23    46 1   
    48    23    47 1   
    49    24    48 1   
    50    24    49 1   
    51    24    50 1   
    52    42    51 1   
@<TRIPOS>SUBSTRUCTURE
     1 21R         1 TEMP              0 ****  ****    0 ROOT
