@<TRIPOS>MOLECULE
21T
   61    65     1     0     0
SMALL
abcg2


@<TRIPOS>ATOM
      1 C1          -1.5310     2.8390     0.8120 c3         1 21T      -0.088433
      2 C2          -1.3730     1.9690    -0.4430 c3         1 21T       0.026300
      3 C3          -2.6850     1.9840    -1.2400 c3         1 21T      -0.088433
      4 C7           0.1930    -1.2750     0.4840 cc         1 21T       0.234900
      5 C8          -3.1530    -0.5990     0.1360 ca         1 21T      -0.045200
      6 C9          -3.8720    -0.1160     1.2180 ca         1 21T      -0.124500
      7 C10         -5.2540    -0.2240     1.2220 ca         1 21T      -0.086000
      8 C11         -5.9280    -0.8270     0.1630 ca         1 21T      -0.119600
      9 C12         -5.1820    -1.3280    -0.9010 ca         1 21T      -0.086000
     10 C13         -3.8000    -1.2200    -0.9200 ca         1 21T      -0.124500
     11 C14         -7.4490    -0.9390     0.1710 c          1 21T       0.712600
     12 C15          1.6680     0.7790     0.3180 c          1 21T       0.658700
     13 C16          4.0530     0.5600    -0.2760 c6         1 21T       0.127700
     14 C19          5.5890    -1.9420     0.0570 c6         1 21T      -0.060700
     15 C20          7.0080    -1.3680     0.0530 c6         1 21T      -0.067400
     16 C21          6.9490     0.1530    -0.1150 c6         1 21T      -0.060700
     17 C22          6.1540     0.7620     1.0420 c6         1 21T      -0.067150
     18 C24          4.8310    -0.0780    -1.4350 c6         1 21T      -0.073700
     19 C4          -0.3100     2.5910    -1.3610 c3         1 21T      -0.088433
     20 C5          -0.9240     0.5780    -0.0280 cd         1 21T      -0.043300
     21 C6           0.3590     0.0940     0.2110 cc         1 21T      -0.312600
     22 N1          -1.0700    -1.6230     0.4470 nd         1 21T      -0.500800
     23 N2          -1.7330    -0.5020     0.1360 na         1 21T       0.247000
     24 O1          -8.0350    -0.4560     1.1570 o          1 21T      -0.713000
     25 O2          -7.9700    -1.5020    -0.8110 o          1 21T      -0.713000
     26 O3           1.8410     1.7960     0.9810 o          1 21T      -0.624100
     27 N3           2.6630     0.1480    -0.3270 ns         1 21T      -0.508900
     28 C17          4.7340     0.1900     1.0520 c6         1 21T      -0.073700
     29 C18          4.7930    -1.3300     1.2120 c6         1 21T      -0.067150
     30 C23          6.2520     0.4920    -1.4350 c6         1 21T      -0.067150
     31 C25          4.9030    -1.6000    -1.2690 c6         1 21T      -0.067150
     32 H1          -0.5970     2.8910     1.3710 hc         1 21T       0.041367
     33 H2          -1.8190     3.8530     0.5310 hc         1 21T       0.041367
     34 H3          -2.3030     2.4450     1.4750 hc         1 21T       0.041367
     35 H4          -2.8300     2.9880    -1.6390 hc         1 21T       0.041367
     36 H5          -2.6560     1.2980    -2.0890 hc         1 21T       0.041367
     37 H6          -3.5630     1.7530    -0.6440 hc         1 21T       0.041367
     38 H7           0.9540    -2.0010     0.7340 h4         1 21T       0.025100
     39 H8          -3.3550     0.3440     2.0500 ha         1 21T       0.104000
     40 H9          -5.8150     0.1620     2.0620 ha         1 21T       0.135500
     41 H10         -5.6900    -1.8050    -1.7280 ha         1 21T       0.135500
     42 H11         -3.2300    -1.6030    -1.7560 ha         1 21T       0.104000
     43 H12          4.0860     1.6480    -0.3930 h1         1 21T       0.063700
     44 H13          5.6320    -3.0290     0.1750 hc         1 21T       0.044700
     45 H16          7.9640     0.5610    -0.1220 hc         1 21T       0.044700
     46 H17          6.6440     0.5440     1.9960 hc         1 21T       0.040075
     47 H18          6.1220     1.8530     0.9460 hc         1 21T       0.040075
     48 H19          4.3370     0.1760    -2.3780 hc         1 21T       0.064700
     49 H20          0.6310     2.7780    -0.8530 hc         1 21T       0.041367
     50 H21         -0.1180     1.9640    -2.2330 hc         1 21T       0.041367
     51 H22         -0.6730     3.5560    -1.7200 hc         1 21T       0.041367
     52 H24          2.4170    -0.6290    -0.9200 hn         1 21T       0.317500
     53 H25          4.1700     0.6320     1.8770 hc         1 21T       0.064700
     54 H26          3.7850    -1.7540     1.2500 hc         1 21T       0.040075
     55 H27          5.2660    -1.5780     2.1670 hc         1 21T       0.040075
     56 H28          6.2250     1.5760    -1.5810 hc         1 21T       0.040075
     57 H29          6.8130     0.0750    -2.2780 hc         1 21T       0.040075
     58 H30          5.4640    -2.0260    -2.1060 hc         1 21T       0.040075
     59 H31          3.9100    -2.0600    -1.3130 hc         1 21T       0.040075
     60 H14          7.5190    -1.6250     0.9870 hc         1 21T       0.035200
     61 H15          7.5920    -1.8150    -0.7580 hc         1 21T       0.035200
@<TRIPOS>BOND
     1     1     2 1   
     2     1    32 1   
     3     1    33 1   
     4     1    34 1   
     5     2     3 1   
     6     2    19 1   
     7     2    20 1   
     8     3    35 1   
     9     3    36 1   
    10     3    37 1   
    11     4    21 1   
    12     4    22 2   
    13     4    38 1   
    14     5     6 ar  
    15     5    10 ar  
    16     5    23 1   
    17     6     7 ar  
    18     6    39 1   
    19     7     8 ar  
    20     7    40 1   
    21     8     9 ar  
    22     8    11 1   
    23     9    10 ar  
    24     9    41 1   
    25    10    42 1   
    26    11    24 1   
    27    11    25 1   
    28    12    21 1   
    29    12    26 2   
    30    12    27 1   
    31    13    18 1   
    32    13    27 1   
    33    13    28 1   
    34    13    43 1   
    35    14    15 1   
    36    14    29 1   
    37    14    31 1   
    38    14    44 1   
    39    15    16 1   
    40    15    60 1   
    41    15    61 1   
    42    16    17 1   
    43    16    30 1   
    44    16    45 1   
    45    17    28 1   
    46    17    46 1   
    47    17    47 1   
    48    18    30 1   
    49    18    31 1   
    50    18    48 1   
    51    19    49 1   
    52    19    50 1   
    53    19    51 1   
    54    20    21 2   
    55    20    23 1   
    56    22    23 1   
    57    27    52 1   
    58    28    29 1   
    59    28    53 1   
    60    29    54 1   
    61    29    55 1   
    62    30    56 1   
    63    30    57 1   
    64    31    58 1   
    65    31    59 1   
@<TRIPOS>SUBSTRUCTURE
     1 21T         1 TEMP              0 ****  ****    0 ROOT
