@<TRIPOS>MOLECULE
21T
   61    65     1     0     0
SMALL
No Charge or Current Charge


@<TRIPOS>ATOM
      1 C1          -1.3620     2.6880     0.8500 c3         1 21T      -0.088433
      2 C2          -1.5490     2.0800    -0.5640 c3         1 21T       0.026300
      3 C3          -3.0650     2.1970    -0.9130 c3         1 21T      -0.088433
      4 C7           0.2870    -1.2160    -0.8630 cc         1 21T       0.234900
      5 C8          -3.0150    -0.6680    -0.3350 ca         1 21T      -0.045200
      6 C9          -3.3380    -0.5860     1.0330 ca         1 21T      -0.124500
      7 C10         -4.6750    -0.6940     1.4550 ca         1 21T      -0.086000
      8 C11         -5.7150    -0.9020     0.5180 ca         1 21T      -0.119600
      9 C12         -5.3760    -1.0100    -0.8520 ca         1 21T      -0.086000
     10 C13         -4.0390    -0.9030    -1.2720 ca         1 21T      -0.124500
     11 C14         -7.1620    -1.0170     0.9740 c          1 21T       0.712600
     12 C15          1.6320     0.8870    -0.4270 c          1 21T       0.658700
     13 C16          4.1340     0.5100    -0.5060 c6         1 21T       0.127700
     14 C19          5.4980    -1.9450     0.5870 c6         1 21T      -0.060700
     15 C20          6.9490    -1.3970     0.7220 c6         1 21T      -0.067400
     16 C21          6.9960     0.0860     0.2490 c6         1 21T      -0.060700
     17 C22          6.0340     0.9380     1.1280 c6         1 21T      -0.067150
     18 C24          5.0880    -0.3710    -1.3740 c6         1 21T      -0.073700
     19 C4          -0.8530     2.9570    -1.6490 c3         1 21T      -0.088433
     20 C5          -0.9710     0.6330    -0.5990 cd         1 21T      -0.043300
     21 C6           0.3420     0.1730    -0.6320 cc         1 21T      -0.312600
     22 N1          -0.9150    -1.7220    -0.9110 nd         1 21T      -0.500800
     23 N2          -1.6850    -0.5920    -0.7500 na         1 21T       0.247000
     24 O1          -7.4090    -0.9230     2.1680 o          1 21T      -0.713000
     25 O2          -8.0290    -1.2000     0.1300 o          1 21T      -0.713000
     26 O3           1.7610     2.0360    -0.0400 o          1 21T      -0.624100
     27 N3           2.7330     0.1060    -0.6840 ns         1 21T      -0.508900
     28 C17          4.5800     0.3980     0.9880 c6         1 21T      -0.073700
     29 C18          4.5390    -1.0880     1.4640 c6         1 21T      -0.067150
     30 C23          6.5430     0.1680    -1.2380 c6         1 21T      -0.067150
     31 C25          5.0520    -1.8580    -0.9010 c6         1 21T      -0.067150
     32 H1          -0.3120     2.7180     1.1520 hc         1 21T       0.041367
     33 H2          -1.7470     3.7150     0.8900 hc         1 21T       0.041367
     34 H3          -1.9030     2.0970     1.5980 hc         1 21T       0.041367
     35 H4          -3.3650     3.2460    -1.0230 hc         1 21T       0.041367
     36 H5          -3.2950     1.6940    -1.8590 hc         1 21T       0.041367
     37 H6          -3.7060     1.7920    -0.1230 hc         1 21T       0.041367
     38 H7           1.1180    -1.9040    -0.9490 h4         1 21T       0.025100
     39 H8          -2.5530    -0.4350     1.7690 ha         1 21T       0.104000
     40 H9          -4.9000    -0.6170     2.5170 ha         1 21T       0.135500
     41 H10         -6.1500    -1.1800    -1.5970 ha         1 21T       0.135500
     42 H11         -3.7980    -0.9940    -2.3290 ha         1 21T       0.104000
     43 H12          4.2270     1.5570    -0.8310 h1         1 21T       0.063700
     44 H13          5.4670    -2.9910     0.9220 hc         1 21T       0.044700
     45 H16          8.0210     0.4710     0.3440 hc         1 21T       0.044700
     46 H17          6.3530     0.9050     2.1790 hc         1 21T       0.040075
     47 H18          6.0780     1.9930     0.8240 hc         1 21T       0.040075
     48 H19          4.7800    -0.3130    -2.4280 hc         1 21T       0.064700
     49 H20          0.2100     3.1100    -1.4730 hc         1 21T       0.041367
     50 H21         -0.9610     2.4980    -2.6390 hc         1 21T       0.041367
     51 H22         -1.2980     3.9590    -1.6950 hc         1 21T       0.041367
     52 H24          2.5520    -0.8330    -1.0050 hn         1 21T       0.317500
     53 H25          3.9120     1.0020     1.6170 hc         1 21T       0.064700
     54 H26          3.5160    -1.4840     1.4090 hc         1 21T       0.040075
     55 H27          4.8360    -1.1530     2.5200 hc         1 21T       0.040075
     56 H28          6.5980     1.2060    -1.5940 hc         1 21T       0.040075
     57 H29          7.2250    -0.4130    -1.8740 hc         1 21T       0.040075
     58 H30          5.7160    -2.4690    -1.5280 hc         1 21T       0.040075
     59 H31          4.0460    -2.2830    -1.0220 hc         1 21T       0.040075
     60 H14          7.2870    -1.4730     1.7640 hc         1 21T       0.035200
     61 H15          7.6410    -2.0070     0.1260 hc         1 21T       0.035200
@<TRIPOS>BOND
     1     1     2 1   
     2     1    32 1   
     3     1    33 1   
     4     1    34 1   
     5     2     3 1   
     6     2    19 1   
     7     2    20 1   
     8     3    35 1   
     9     3    36 1   
    10     3    37 1   
    11     4    21 1   
    12     4    22 2   
    13     4    38 1   
    14     5     6 ar  
    15     5    10 ar  
    16     5    23 1   
    17     6     7 ar  
    18     6    39 1   
    19     7     8 ar  
    20     7    40 1   
    21     8     9 ar  
    22     8    11 1   
    23     9    10 ar  
    24     9    41 1   
    25    10    42 1   
    26    11    24 1   
    27    11    25 1   
    28    12    21 1   
    29    12    26 2   
    30    12    27 1   
    31    13    18 1   
    32    13    27 1   
    33    13    28 1   
    34    13    43 1   
    35    14    15 1   
    36    14    29 1   
    37    14    31 1   
    38    14    44 1   
    39    15    16 1   
    40    15    60 1   
    41    15    61 1   
    42    16    17 1   
    43    16    30 1   
    44    16    45 1   
    45    17    28 1   
    46    17    46 1   
    47    17    47 1   
    48    18    30 1   
    49    18    31 1   
    50    18    48 1   
    51    19    49 1   
    52    19    50 1   
    53    19    51 1   
    54    20    21 2   
    55    20    23 1   
    56    22    23 1   
    57    27    52 1   
    58    28    29 1   
    59    28    53 1   
    60    29    54 1   
    61    29    55 1   
    62    30    56 1   
    63    30    57 1   
    64    31    58 1   
    65    31    59 1   
@<TRIPOS>SUBSTRUCTURE
     1 21T         1 TEMP              0 ****  ****    0 ROOT
