@<TRIPOS>MOLECULE
21U
   50    51     1     0     0
SMALL
No Charge or Current Charge


@<TRIPOS>ATOM
      1 N2          17.8780   -16.0550    22.6950 n8         1 21U      -0.992200
      2 C15         18.6110   -14.8090    23.1040 c3         1 21U       0.108500
      3 C16         18.7780   -14.8120    24.6510 c3         1 21U      -0.068400
      4 C12         19.6590   -13.6700    25.2390 c3         1 21U      -0.063700
      5 C13         21.1020   -13.6700    24.6800 c3         1 21U      -0.087100
      6 C18         19.6710   -13.7270    26.7840 c3         1 21U      -0.087100
      7 C14         17.9650   -13.4700    22.5570 c          1 21U       0.562100
      8 O32         17.1490   -12.8330    23.2180 o          1 21U      -0.632100
      9 N1          18.2890   -13.0470    21.2460 n          1 21U      -0.400800
     10 C1          17.5930   -11.9100    20.5770 c5         1 21U       0.030700
     11 C7          16.0400   -12.0480    20.4540 c          1 21U       0.593100
     12 O22         15.3740   -13.0760    20.5030 o          1 21U      -0.597100
     13 C2          18.2040   -11.9870    19.1460 c5         1 21U      -0.083400
     14 C3          19.6620   -12.4060    19.4440 c5         1 21U      -0.093400
     15 C4          19.4660   -13.5320    20.4900 c5         1 21U       0.109000
     16 N23         15.4870   -10.7980    20.2630 ns         1 21U      -0.495900
     17 C24         14.0540   -10.5370    20.1330 c3         1 21U       0.154300
     18 C25         13.4430   -10.1360    21.4670 ca         1 21U      -0.097300
     19 C26         12.9550   -11.1200    22.3500 ca         1 21U      -0.110000
     20 C27         12.3950   -10.7520    23.5850 ca         1 21U      -0.103000
     21 C28         12.3200    -9.3950    23.9470 ca         1 21U      -0.104000
     22 C29         12.8070    -8.4110    23.0710 ca         1 21U       0.128000
     23 C30         13.3670    -8.7770    21.8360 ca         1 21U      -0.084000
     24 Cl21        12.7160    -6.7130    23.5240 cl         1 21U      -0.217000
     25 HN2         16.9020   -15.9870    23.0100 hn         1 21U       0.412000
     26 HN2A        17.7890   -16.0770    21.6710 hn         1 21U       0.412000
     27 H15         19.6180   -14.8910    22.6790 h1         1 21U       0.063700
     28 H16         17.7830   -14.7640    25.1110 hc         1 21U       0.061700
     29 H16A        19.2100   -15.7740    24.9550 hc         1 21U       0.061700
     30 H12         19.2050   -12.7090    24.9660 hc         1 21U       0.044700
     31 H13         21.1110   -13.4700    23.6030 hc         1 21U       0.032700
     32 H13A        21.7030   -12.8900    25.1630 hc         1 21U       0.032700
     33 H13B        21.5900   -14.6360    24.8580 hc         1 21U       0.032700
     34 H18         20.1250   -14.6610    27.1370 hc         1 21U       0.032700
     35 H18A        20.2430   -12.8880    27.1990 hc         1 21U       0.032700
     36 H18B        18.6510   -13.6680    27.1830 hc         1 21U       0.032700
     37 H1          17.8420   -10.9640    21.0770 h1         1 21U       0.066700
     38 H2          18.1370   -11.0350    18.6070 hc         1 21U       0.064200
     39 H2A         17.7000   -12.7450    18.5320 hc         1 21U       0.064200
     40 H3          20.2320   -11.5710    19.8680 hc         1 21U       0.057700
     41 H3A         20.1980   -12.7500    18.5530 hc         1 21U       0.057700
     42 H4          20.3600   -13.6440    21.1170 h1         1 21U       0.055700
     43 H4A         19.2480   -14.4960    20.0100 h1         1 21U       0.055700
     44 HN23        16.1230   -10.0110    20.2370 hn         1 21U       0.320500
     45 H24         13.9090    -9.7320    19.4010 h1         1 21U       0.061200
     46 H24A        13.5470   -11.4300    19.7430 h1         1 21U       0.061200
     47 H26         13.0130   -12.1720    22.0790 ha         1 21U       0.111000
     48 H27         12.0200   -11.5160    24.2630 ha         1 21U       0.116000
     49 H28         11.8880    -9.1070    24.9020 ha         1 21U       0.128000
     50 H30         13.7420    -8.0050    21.1690 ha         1 21U       0.159000
@<TRIPOS>BOND
     1     1     2 1   
     2     1    25 1   
     3     1    26 1   
     4     2     3 1   
     5     2     7 1   
     6     2    27 1   
     7     3     4 1   
     8     3    28 1   
     9     3    29 1   
    10     4     5 1   
    11     4     6 1   
    12     4    30 1   
    13     5    31 1   
    14     5    32 1   
    15     5    33 1   
    16     6    34 1   
    17     6    35 1   
    18     6    36 1   
    19     7     8 2   
    20     7     9 1   
    21     9    10 1   
    22     9    15 1   
    23    10    11 1   
    24    10    13 1   
    25    10    37 1   
    26    11    12 2   
    27    11    16 1   
    28    13    14 1   
    29    13    38 1   
    30    13    39 1   
    31    14    15 1   
    32    14    40 1   
    33    14    41 1   
    34    15    42 1   
    35    15    43 1   
    36    16    17 1   
    37    16    44 1   
    38    17    18 1   
    39    17    45 1   
    40    17    46 1   
    41    18    19 ar  
    42    18    23 ar  
    43    19    20 ar  
    44    19    47 1   
    45    20    21 ar  
    46    20    48 1   
    47    21    22 ar  
    48    21    49 1   
    49    22    23 ar  
    50    22    24 1   
    51    23    50 1   
@<TRIPOS>SUBSTRUCTURE
     1 21U         1 TEMP              0 ****  ****    0 ROOT
