@<TRIPOS>MOLECULE
21U
   50    51     1     0     0
SMALL
abcg2


@<TRIPOS>ATOM
      1 N2          16.8530   -14.8660    23.8100 n8         1 21U      -0.992200
      2 C15         18.1100   -14.1480    23.5460 c3         1 21U       0.108500
      3 C16         18.7540   -13.7350    24.8680 c3         1 21U      -0.068400
      4 C12         20.1230   -13.0560    24.7430 c3         1 21U      -0.063700
      5 C13         21.2150   -14.0380    24.3140 c3         1 21U      -0.087100
      6 C18         20.4990   -12.3820    26.0630 c3         1 21U      -0.087100
      7 C14         17.8200   -12.9110    22.6890 c          1 21U       0.562100
      8 O32         17.1350   -11.9900    23.1540 o          1 21U      -0.632100
      9 N1          18.2490   -12.8710    21.4160 n          1 21U      -0.400800
     10 C1          17.8470   -11.7580    20.5490 c5         1 21U       0.030700
     11 C7          16.3280   -11.7180    20.3860 c          1 21U       0.593100
     12 O22         15.6850   -12.7350    20.1340 o          1 21U      -0.597100
     13 C2          18.5430   -12.0620    19.2090 c5         1 21U      -0.083400
     14 C3          19.7220   -12.9550    19.6000 c5         1 21U      -0.093400
     15 C4          19.1540   -13.8070    20.7310 c5         1 21U       0.109000
     16 N23         15.7670   -10.5000    20.4730 ns         1 21U      -0.495900
     17 C24         14.3510   -10.2750    20.2750 c3         1 21U       0.154300
     18 C25         13.4670   -10.5990    21.4650 ca         1 21U      -0.097300
     19 C26         12.0920   -10.3880    21.3530 ca         1 21U      -0.110000
     20 C27         11.2440   -10.6790    22.4130 ca         1 21U      -0.103000
     21 C28         11.7520   -11.1890    23.6050 ca         1 21U      -0.104000
     22 C29         13.1200   -11.3930    23.7000 ca         1 21U       0.128000
     23 C30         13.9860   -11.1060    22.6520 ca         1 21U      -0.084000
     24 CL21        13.7850   -12.0440    25.1910 cl         1 21U      -0.217000
     25 HN2         16.1830   -14.2200    24.2190 hn         1 21U       0.412000
     26 HN2A        16.4450   -15.1840    22.9360 hn         1 21U       0.412000
     27 H15         18.7610   -14.8370    23.0140 h1         1 21U       0.063700
     28 H16         18.0610   -13.0600    25.3770 hc         1 21U       0.061700
     29 H16A        18.8470   -14.6300    25.4900 hc         1 21U       0.061700
     30 H12         20.0490   -12.2730    23.9780 hc         1 21U       0.044700
     31 H13         20.9890   -14.5190    23.3610 hc         1 21U       0.032700
     32 H13A        22.1750   -13.5280    24.2060 hc         1 21U       0.032700
     33 H13B        21.3340   -14.8250    25.0640 hc         1 21U       0.032700
     34 H18         20.5580   -13.1200    26.8680 hc         1 21U       0.032700
     35 H18A        21.4700   -11.8860    25.9910 hc         1 21U       0.032700
     36 H18B        19.7550   -11.6340    26.3480 hc         1 21U       0.032700
     37 H1          18.2020   -10.8190    20.9770 h1         1 21U       0.066700
     38 H2          18.8390   -11.1480    18.6990 hc         1 21U       0.064200
     39 H2A         17.8580   -12.6130    18.5630 hc         1 21U       0.064200
     40 H3          20.5500   -12.3510    19.9750 hc         1 21U       0.057700
     41 H3A         20.0860   -13.5610    18.7710 hc         1 21U       0.057700
     42 H4          19.9270   -14.1680    21.4030 h1         1 21U       0.055700
     43 H4A         18.5950   -14.6630    20.3430 h1         1 21U       0.055700
     44 HN23        16.3400    -9.7230    20.7620 hn         1 21U       0.320500
     45 H24         14.2190    -9.2270    20.0020 h1         1 21U       0.061200
     46 H24A        14.0230   -10.8740    19.4230 h1         1 21U       0.061200
     47 H26         11.6840    -9.9940    20.4300 ha         1 21U       0.111000
     48 H27         10.1790   -10.5120    22.3170 ha         1 21U       0.116000
     49 H28         11.1010   -11.4220    24.4360 ha         1 21U       0.128000
     50 H30         15.0450   -11.2860    22.7640 ha         1 21U       0.159000
@<TRIPOS>BOND
     1     1     2 1   
     2     1    25 1   
     3     1    26 1   
     4     2     3 1   
     5     2     7 1   
     6     2    27 1   
     7     3     4 1   
     8     3    28 1   
     9     3    29 1   
    10     4     5 1   
    11     4     6 1   
    12     4    30 1   
    13     5    31 1   
    14     5    32 1   
    15     5    33 1   
    16     6    34 1   
    17     6    35 1   
    18     6    36 1   
    19     7     8 2   
    20     7     9 1   
    21     9    10 1   
    22     9    15 1   
    23    10    11 1   
    24    10    13 1   
    25    10    37 1   
    26    11    12 2   
    27    11    16 1   
    28    13    14 1   
    29    13    38 1   
    30    13    39 1   
    31    14    15 1   
    32    14    40 1   
    33    14    41 1   
    34    15    42 1   
    35    15    43 1   
    36    16    17 1   
    37    16    44 1   
    38    17    18 1   
    39    17    45 1   
    40    17    46 1   
    41    18    19 ar  
    42    18    23 ar  
    43    19    20 ar  
    44    19    47 1   
    45    20    21 ar  
    46    20    48 1   
    47    21    22 ar  
    48    21    49 1   
    49    22    23 ar  
    50    22    24 1   
    51    23    50 1   
@<TRIPOS>SUBSTRUCTURE
     1 21U         1 TEMP              0 ****  ****    0 ROOT
