@<TRIPOS>MOLECULE
21V
   55    57     1     0     0
SMALL
No Charge or Current Charge


@<TRIPOS>ATOM
      1 OE2         -7.6790     3.5090     1.6570 o          1 21V      -0.760500
      2 CD          -6.6060     3.2630     1.1270 c          1 21V       0.712000
      3 OE1         -5.9110     4.1110     0.5900 o          1 21V      -0.760500
      4 CG          -6.1370     1.7960     1.0780 c3         1 21V      -0.201400
      5 CB          -6.6770     1.1060    -0.2020 c3         1 21V      -0.056400
      6 CA          -6.3620    -0.4110    -0.3050 c3         1 21V      -0.051300
      7 CT          -7.0690    -1.0500    -1.5390 c          1 21V       0.719000
      8 O1          -6.6010    -0.8440    -2.6520 o          1 21V      -0.742000
      9 O2          -8.0080    -1.8090    -1.3400 o          1 21V      -0.742000
     10 N           -4.9040    -0.6790    -0.3600 ns         1 21V      -0.419900
     11 C           -4.1060    -1.0380     0.7100 c          1 21V       0.593700
     12 O           -4.5740    -1.2080     1.8300 o          1 21V      -0.635100
     13 C11         -2.6260    -1.2210     0.4210 ca         1 21V      -0.101600
     14 C12         -2.0760    -1.0170    -0.8690 ca         1 21V      -0.077000
     15 C13         -0.7000    -1.1960    -1.0960 ca         1 21V      -0.127000
     16 C16         -1.7560    -1.6040     1.4680 ca         1 21V      -0.077000
     17 C15         -0.3820    -1.7820     1.2350 ca         1 21V      -0.127000
     18 C14          0.1550    -1.5810    -0.0480 ca         1 21V      -0.107300
     19 C10          1.6450    -1.7690    -0.2970 c3         1 21V      -0.020100
     20 C9           2.4490    -0.4860     0.0110 c3         1 21V      -0.075400
     21 C6           3.9730    -0.5550    -0.3180 c6         1 21V      -0.078700
     22 C7           4.7200    -1.6460     0.5060 c6         1 21V       0.226800
     23 N8           6.1600    -1.6300     0.1840 nu         1 21V      -0.838200
     24 C5           4.6500     0.8330    -0.1250 c6         1 21V       0.003800
     25 C4A          6.1550     0.7140    -0.2850 cc         1 21V      -0.349400
     26 C4           6.9250     1.9080    -0.6080 c          1 21V       0.734700
     27 O4           6.4390     3.0170    -0.7640 o          1 21V      -0.576100
     28 C8A          6.7880    -0.4780    -0.1180 cd         1 21V       0.378000
     29 N1           8.1340    -0.4920    -0.2870 na         1 21V      -0.813200
     30 C2           8.8420     0.6060    -0.5740 cc         1 21V       0.874100
     31 N3           8.2890     1.7510    -0.7340 nd         1 21V      -0.769100
     32 NA2         10.1330     0.4720    -0.6900 nv         1 21V      -1.060200
     33 H2          -5.0430     1.7490     1.0120 hc         1 21V       0.009700
     34 H3          -6.5540     1.2320     1.9210 hc         1 21V       0.009700
     35 H4          -7.7670     1.2330    -0.2350 hc         1 21V       0.051200
     36 H5          -6.2780     1.6190    -1.0860 hc         1 21V       0.051200
     37 H6          -6.7740    -0.9070     0.5830 h1         1 21V       0.056700
     38 H8          -4.4490    -0.5910    -1.2590 hn         1 21V       0.297500
     39 H9          -2.6970    -0.7180    -1.7090 ha         1 21V       0.134000
     40 H10         -0.2970    -1.0320    -2.0930 ha         1 21V       0.093500
     41 H11         -2.1450    -1.7660     2.4710 ha         1 21V       0.134000
     42 H12          0.2670    -2.0750     2.0570 ha         1 21V       0.093500
     43 H13          2.0180    -2.5960     0.3200 hc         1 21V       0.033200
     44 H14          1.8190    -2.0610    -1.3400 hc         1 21V       0.033200
     45 H15          1.9970     0.3370    -0.5570 hc         1 21V       0.053700
     46 H16          2.3100    -0.2340     1.0700 hc         1 21V       0.053700
     47 H17          4.0500    -0.8230    -1.3810 hc         1 21V       0.058700
     48 H18          4.5720    -1.4590     1.5800 h1         1 21V       0.045700
     49 H19          4.3000    -2.6370     0.2810 h1         1 21V       0.045700
     50 H20          4.2250     1.5460    -0.8470 hc         1 21V       0.062200
     51 H21          4.4120     1.2270     0.8730 hc         1 21V       0.062200
     52 H24         10.5490    -0.1820    -0.0430 hn         1 21V       0.490500
     53 H25         10.6070     1.3630    -0.7470 hn         1 21V       0.490500
     54 H26          6.7430    -2.4210     0.4510 hn         1 21V       0.473000
     55 H22          8.6340    -1.3600    -0.2340 hn         1 21V       0.488000
@<TRIPOS>BOND
     1     1     2 1   
     2     2     3 1   
     3     2     4 1   
     4     4     5 1   
     5     4    33 1   
     6     4    34 1   
     7     5     6 1   
     8     5    35 1   
     9     5    36 1   
    10     6     7 1   
    11     6    10 1   
    12     6    37 1   
    13     7     8 1   
    14     7     9 1   
    15    10    11 1   
    16    10    38 1   
    17    11    12 2   
    18    11    13 1   
    19    13    14 ar  
    20    13    16 ar  
    21    14    15 ar  
    22    14    39 1   
    23    15    18 ar  
    24    15    40 1   
    25    16    17 ar  
    26    16    41 1   
    27    17    18 ar  
    28    17    42 1   
    29    18    19 1   
    30    19    20 1   
    31    19    43 1   
    32    19    44 1   
    33    20    21 1   
    34    20    45 1   
    35    20    46 1   
    36    21    22 1   
    37    21    24 1   
    38    21    47 1   
    39    22    23 1   
    40    22    48 1   
    41    22    49 1   
    42    23    28 1   
    43    23    54 1   
    44    24    25 1   
    45    24    50 1   
    46    24    51 1   
    47    25    26 1   
    48    25    28 2   
    49    26    27 2   
    50    26    31 1   
    51    28    29 1   
    52    29    30 1   
    53    29    55 1   
    54    30    31 2   
    55    30    32 1   
    56    32    52 1   
    57    32    53 1   
@<TRIPOS>SUBSTRUCTURE
     1 21V         1 TEMP              0 ****  ****    0 ROOT
