@<TRIPOS>MOLECULE
21W
   46    49     1     0     0
SMALL
bcc


@<TRIPOS>ATOM
      1 C2           0.8400     0.2840    -1.0280 ca         1 21W      -0.118500
      2 C4           1.8700     1.1010     0.9680 ca         1 21W      -0.118500
      3 C1           1.9860    -0.4380    -1.3200 ca         1 21W      -0.118500
      4 C5           3.0180     0.3770     0.6760 ca         1 21W      -0.118500
      5 C13          9.0660     0.6110     1.3350 cc         1 21W      -0.264600
      6 C12          9.8800     0.0990     0.3670 cd         1 21W       0.295200
      7 C20         -3.2520    -1.4940     0.1630 cc         1 21W      -0.122100
      8 C23         -5.0270    -0.0330    -0.0270 cd         1 21W      -0.207600
      9 C19         -3.6090    -0.1960    -0.0210 cd         1 21W      -0.100600
     10 C3           0.7670     1.0650     0.1230 ca         1 21W      -0.111300
     11 C6           3.0900    -0.4090    -0.4700 ca         1 21W      -0.088300
     12 C22         -5.6970    -1.2310     0.1430 cc         1 21W       0.204300
     13 C10          7.9140    -0.5930    -0.0930 cc         1 21W       0.389800
     14 C27         -7.7170    -0.3120     0.0820 cd         1 21W       0.506800
     15 C24         -5.8050     1.1820    -0.0880 c          1 21W       0.737100
     16 C17         -2.6070     0.8670    -0.3290 c          1 21W       0.704700
     17 C15         -0.4820     1.8470     0.4460 c3         1 21W       0.146300
     18 C7           4.3140    -1.2300    -0.7760 c3         1 21W       0.211100
     19 C9           6.7330    -1.2880    -0.6830 c3         1 21W       0.131500
     20 N14          7.8170     0.1550     1.0240 na         1 21W      -0.283900
     21 N28         -7.0370    -1.4040     0.1950 nc         1 21W      -0.601100
     22 N11          9.1510    -0.6460    -0.5210 nd         1 21W      -0.678000
     23 N26         -7.1700     0.9130    -0.0550 ns         1 21W      -0.487400
     24 N16         -1.6410     0.9940     0.5950 ns         1 21W      -0.568900
     25 N8           5.5320    -0.5060    -0.4730 n7         1 21W      -0.834200
     26 O25         -5.3900     2.3230    -0.1400 o          1 21W      -0.580500
     27 O18         -2.6730     1.5140    -1.3590 o          1 21W      -0.569100
     28 S21         -4.6030    -2.5500     0.3070 ss         1 21W       0.000200
     29 H1           0.0010     0.2480    -1.7140 ha         1 21W       0.137000
     30 H2           1.8350     1.7020     1.8690 ha         1 21W       0.137000
     31 H3           2.0240    -1.0320    -2.2270 ha         1 21W       0.135000
     32 H4           3.8670     0.4220     1.3460 ha         1 21W       0.135000
     33 H6          10.9450     0.2330     0.2580 h4         1 21W       0.037100
     34 H7          -2.2520    -1.9020     0.1840 h4         1 21W       0.177000
     35 H8          -8.7980    -0.3440     0.1000 h5         1 21W       0.051800
     36 H9          -0.3420     2.4070     1.3710 h1         1 21W       0.067700
     37 H10         -0.6940     2.5730    -0.3380 h1         1 21W       0.067700
     38 H11          4.3030    -2.1320    -0.1550 h1         1 21W       0.040700
     39 H12          4.2640    -1.5800    -1.8170 h1         1 21W       0.040700
     40 H13          6.9490    -1.5200    -1.7340 h1         1 21W       0.057200
     41 H14          6.5960    -2.2530    -0.1810 h1         1 21W       0.057200
     42 H15          6.9580     0.3510     1.5140 hn         1 21W       0.311700
     43 H17         -7.7960     1.7060    -0.1150 hn         1 21W       0.333500
     44 H18         -1.6830     0.4130     1.4180 hn         1 21W       0.316500
     45 H19          5.5720     0.3330    -1.0410 hn         1 21W       0.367800
     46 H5           9.2570     1.2430     2.1850 h4         1 21W       0.174000
@<TRIPOS>BOND
     1     1     3 ar  
     2     1    10 ar  
     3     1    29 1   
     4     2     4 ar  
     5     2    10 ar  
     6     2    30 1   
     7     3    11 ar  
     8     3    31 1   
     9     4    11 ar  
    10     4    32 1   
    11     5     6 2   
    12     5    20 1   
    13     5    46 1   
    14     6    22 1   
    15     6    33 1   
    16     7     9 2   
    17     7    28 1   
    18     7    34 1   
    19     8     9 1   
    20     8    12 2   
    21     8    15 1   
    22     9    16 1   
    23    10    17 1   
    24    11    18 1   
    25    12    21 1   
    26    12    28 1   
    27    13    19 1   
    28    13    20 1   
    29    13    22 2   
    30    14    21 2   
    31    14    23 1   
    32    14    35 1   
    33    15    23 1   
    34    15    26 2   
    35    16    24 1   
    36    16    27 2   
    37    17    24 1   
    38    17    36 1   
    39    17    37 1   
    40    18    25 1   
    41    18    38 1   
    42    18    39 1   
    43    19    25 1   
    44    19    40 1   
    45    19    41 1   
    46    20    42 1   
    47    23    43 1   
    48    24    44 1   
    49    25    45 1   
@<TRIPOS>SUBSTRUCTURE
     1 21W         1 TEMP              0 ****  ****    0 ROOT
