@<TRIPOS>MOLECULE
21W
   46    49     1     0     0
SMALL
No Charge or Current Charge


@<TRIPOS>ATOM
      1 C2           1.4000     0.4060    -1.3380 ca         1 21W      -0.100500
      2 C4           1.4690     0.3840     1.0920 ca         1 21W      -0.100500
      3 C1           2.5810    -0.3560    -1.3780 ca         1 21W      -0.100500
      4 C5           2.6500    -0.3770     1.0510 ca         1 21W      -0.100500
      5 C13          9.4200     1.2250     0.7340 cc         1 21W      -0.232000
      6 C12         10.1570     0.4070    -0.0840 cd         1 21W       0.229900
      7 C20         -3.5320    -1.2680    -0.0050 cc         1 21W      -0.249000
      8 C23         -5.3990     0.1620     0.0600 cd         1 21W      -0.207600
      9 C19         -3.9460     0.0580     0.0200 cd         1 21W      -0.100600
     10 C3           0.8380     0.7810    -0.1020 ca         1 21W      -0.111300
     11 C6           3.2140    -0.7520    -0.1830 ca         1 21W      -0.088300
     12 C22         -6.0150    -1.0770     0.0640 cc         1 21W       0.059400
     13 C10          8.1900    -0.4900     0.0160 cc         1 21W       0.389800
     14 C27         -8.1160    -0.1440     0.1310 cd         1 21W       0.506800
     15 C24         -6.2540     1.3860     0.0960 c          1 21W       0.594600
     16 C17         -2.9190     1.1720     0.0040 c          1 21W       0.637700
     17 C15         -0.4430     1.5990    -0.0590 c3         1 21W       0.146300
     18 C7           4.4900    -1.5810    -0.2250 c3         1 21W       0.211100
     19 C9           6.9910    -1.4120    -0.1710 c3         1 21W       0.131500
     20 N14          8.1690     0.6440     0.7900 na         1 21W      -0.283500
     21 N28         -7.3860    -1.2550     0.0990 nc         1 21W      -0.601100
     22 N11          9.3900    -0.6540    -0.5260 nd         1 21W      -0.678000
     23 N26         -7.5820     1.1080     0.1290 ns         1 21W      -0.420400
     24 N16         -1.6150     0.7280    -0.0360 ns         1 21W      -0.501900
     25 N8           5.6730    -0.7100    -0.1010 n7         1 21W      -0.889400
     26 O25         -5.8760     2.5440     0.0980 o          1 21W      -0.505000
     27 O18         -3.1580     2.3680     0.0230 o          1 21W      -0.569100
     28 S21         -4.8650    -2.4040     0.0190 ss         1 21W       0.290000
     29 H1           0.9200     0.7020    -2.2680 ha         1 21W       0.119000
     30 H2           1.0440     0.6650     2.0540 ha         1 21W       0.119000
     31 H3           3.0040    -0.6380    -2.3390 ha         1 21W       0.117000
     32 H4           3.1300    -0.6750     1.9810 ha         1 21W       0.117000
     33 H6          11.1930     0.5230    -0.3790 h4         1 21W       0.037100
     34 H7          -2.5360    -1.6880    -0.0360 h4         1 21W       0.159000
     35 H8          -9.1990    -0.1540     0.1600 h5         1 21W       0.051800
     36 H9          -0.4500     2.2340     0.8370 h1         1 21W       0.067700
     37 H10         -0.4990     2.2530    -0.9390 h1         1 21W       0.067700
     38 H11          4.4680    -2.3160     0.5910 h1         1 21W       0.040700
     39 H12          4.5240    -2.1430    -1.1690 h1         1 21W       0.040700
     40 H13          7.0980    -1.9210    -1.1390 h1         1 21W       0.057200
     41 H14          7.0460    -2.1880     0.6050 h1         1 21W       0.057200
     42 H15          7.3540     0.9730     1.2950 hn         1 21W       0.362000
     43 H17         -8.1960     1.9080     0.1540 hn         1 21W       0.333500
     44 H18         -1.4690    -0.2710    -0.0500 hn         1 21W       0.316500
     45 H19          5.6300    -0.0220    -0.8650 hn         1 21W       0.423000
     46 H5           9.6860     2.1370     1.2540 h4         1 21W       0.156000
@<TRIPOS>BOND
     1     1     3 ar  
     2     1    10 ar  
     3     1    29 1   
     4     2     4 ar  
     5     2    10 ar  
     6     2    30 1   
     7     3    11 ar  
     8     3    31 1   
     9     4    11 ar  
    10     4    32 1   
    11     5     6 2   
    12     5    20 1   
    13     5    46 1   
    14     6    22 1   
    15     6    33 1   
    16     7     9 2   
    17     7    28 1   
    18     7    34 1   
    19     8     9 1   
    20     8    12 2   
    21     8    15 1   
    22     9    16 1   
    23    10    17 1   
    24    11    18 1   
    25    12    21 1   
    26    12    28 1   
    27    13    19 1   
    28    13    20 1   
    29    13    22 2   
    30    14    21 2   
    31    14    23 1   
    32    14    35 1   
    33    15    23 1   
    34    15    26 2   
    35    16    24 1   
    36    16    27 2   
    37    17    24 1   
    38    17    36 1   
    39    17    37 1   
    40    18    25 1   
    41    18    38 1   
    42    18    39 1   
    43    19    25 1   
    44    19    40 1   
    45    19    41 1   
    46    20    42 1   
    47    23    43 1   
    48    24    44 1   
    49    25    45 1   
@<TRIPOS>SUBSTRUCTURE
     1 21W         1 TEMP              0 ****  ****    0 ROOT
