@<TRIPOS>MOLECULE
21X
   36    38     1     0     0
SMALL
No Charge or Current Charge


@<TRIPOS>ATOM
      1 C1          -4.8260     0.3620     1.1900 ca         1 21X      -0.100500
      2 C5          -4.8330     0.0090    -1.2150 ca         1 21X      -0.100500
      3 C2          -3.6220    -0.3570     1.2920 ca         1 21X      -0.102500
      4 C4          -3.6290    -0.7100    -1.1130 ca         1 21X      -0.102500
      5 C14          1.2920     1.2520    -0.1930 cc         1 21X      -0.247000
      6 C17          3.2010    -0.1110    -0.0060 cd         1 21X      -0.207600
      7 C13          1.7450    -0.0480    -0.0060 cd         1 21X      -0.101600
      8 C6          -5.4400     0.5500    -0.0640 ca         1 21X      -0.084300
      9 C3          -3.0180    -0.8990     0.1410 ca         1 21X      -0.112300
     10 C16          3.7800     1.1320    -0.1910 cc         1 21X       0.058400
     11 C21          5.9080     0.2680    -0.0770 cd         1 21X       0.505800
     12 C18          4.0920    -1.2980     0.1620 c          1 21X       0.594600
     13 C11          0.7500    -1.1790     0.1650 c          1 21X       0.636700
     14 C7          -6.7390     1.3370    -0.1750 c3         1 21X       0.197100
     15 C9          -1.7130    -1.6710     0.2510 c3         1 21X       0.146300
     16 N22          5.1460     1.3470    -0.2300 nc         1 21X      -0.601100
     17 N20          5.4110    -0.9850     0.1090 ns         1 21X      -0.420400
     18 N8          -7.9150     0.4800     0.0660 n8         1 21X      -1.000200
     19 N10         -0.5670    -0.7760     0.1140 ns         1 21X      -0.501900
     20 O19          3.7480    -2.4530     0.3330 o          1 21X      -0.505000
     21 O12          1.0250    -2.3560     0.3350 o          1 21X      -0.569100
     22 S15          2.5920     2.4130    -0.3710 ss         1 21X       0.289000
     23 H1          -5.2840     0.7750     2.0860 ha         1 21X       0.120000
     24 H2          -5.2930     0.1480    -2.1910 ha         1 21X       0.120000
     25 H3          -3.1580    -0.4920     2.2670 ha         1 21X       0.115000
     26 H4          -3.1700    -1.1190    -2.0110 ha         1 21X       0.115000
     27 H6           6.9910     0.3080    -0.0890 h5         1 21X       0.050800
     28 H7          -6.7420     2.1560     0.5580 h1         1 21X       0.034700
     29 H8          -6.8220     1.7780    -1.1780 h1         1 21X       0.034700
     30 H9          -1.6590    -2.1770     1.2240 h1         1 21X       0.067200
     31 H10         -1.6660    -2.4380    -0.5340 h1         1 21X       0.067200
     32 H11          6.0490    -1.7590     0.2180 hn         1 21X       0.332500
     33 H12         -8.7660     1.0260    -0.1120 hn         1 21X       0.397500
     34 H13         -7.9390    -0.2510    -0.6550 hn         1 21X       0.397500
     35 H15         -0.7420     0.2080    -0.0290 hn         1 21X       0.316500
     36 H5           0.2840     1.6400    -0.2440 h4         1 21X       0.160000
@<TRIPOS>BOND
     1     1     3 ar  
     2     1     8 ar  
     3     1    23 1   
     4     2     4 ar  
     5     2     8 ar  
     6     2    24 1   
     7     3     9 ar  
     8     3    25 1   
     9     4     9 ar  
    10     4    26 1   
    11     5     7 2   
    12     5    22 1   
    13     5    36 1   
    14     6     7 1   
    15     6    10 2   
    16     6    12 1   
    17     7    13 1   
    18     8    14 1   
    19     9    15 1   
    20    10    16 1   
    21    10    22 1   
    22    11    16 2   
    23    11    17 1   
    24    11    27 1   
    25    12    17 1   
    26    12    20 2   
    27    13    19 1   
    28    13    21 2   
    29    14    18 1   
    30    14    28 1   
    31    14    29 1   
    32    15    19 1   
    33    15    30 1   
    34    15    31 1   
    35    17    32 1   
    36    18    33 1   
    37    18    34 1   
    38    19    35 1   
@<TRIPOS>SUBSTRUCTURE
     1 21X         1 TEMP              0 ****  ****    0 ROOT
