@<TRIPOS>MOLECULE
21Y
   45    46     1     0     0
SMALL
bcc


@<TRIPOS>ATOM
      1 C17         -3.7640     1.1830    -0.4480 c6         1 21Y       0.079500
      2 C20         -7.3780    -0.0110    -0.1960 c3         1 21Y      -0.151400
      3 C21         -8.6870     0.7070     0.0810 c3         1 21Y      -0.077100
      4 C24         -3.7310    -1.5580     0.3730 c6         1 21Y       0.076000
      5 O01         -1.1460    -2.5080     0.0980 o          1 21Y      -0.603100
      6 C02         -1.3120    -1.3060     0.2500 c          1 21Y       0.666100
      7 C03         -0.1130    -0.3650     0.2700 c3         1 21Y       0.152800
      8 N04          1.0840    -1.1360     0.1670 nu         1 21Y      -0.775600
      9 C05          2.3180    -0.5820     0.0570 ca         1 21Y       0.204600
     10 C06          2.5380     0.7920     0.0870 ca         1 21Y      -0.204000
     11 C07          3.8240     1.3160    -0.0170 ca         1 21Y       0.052400
     12 CL1          4.0250     3.0310     0.0300 cl         1 21Y      -0.092400
     13 C09          4.9100     0.4800    -0.1520 ca         1 21Y       0.002400
     14 CL2          6.5170     1.1010    -0.2780 cl         1 21Y      -0.090400
     15 C11          4.7130    -0.9020    -0.1840 ca         1 21Y      -0.160000
     16 C12          3.4460    -1.4330    -0.0790 ca         1 21Y       0.075100
     17 O13          3.1630    -2.7490    -0.0920 os         1 21Y      -0.325900
     18 C14          4.2300    -3.6730    -0.1770 c3         1 21Y       0.128700
     19 N15         -2.5260    -0.7470     0.3980 n          1 21Y      -0.475800
     20 C16         -2.7850     0.6690     0.5970 c6         1 21Y       0.076000
     21 N18         -4.9680     0.3770    -0.4560 n          1 21Y      -0.486800
     22 C19         -6.1810     0.9230    -0.1980 c          1 21Y       0.675100
     23 O22         -6.3140     2.1200     0.0170 o          1 21Y      -0.598100
     24 C23         -4.7000    -1.0300    -0.6750 c6         1 21Y       0.079500
     25 H171        -4.0140     2.2190    -0.2330 h1         1 21Y       0.064700
     26 H172        -3.2960     1.1490    -1.4370 h1         1 21Y       0.064700
     27 H201        -7.2220    -0.7950     0.5490 hc         1 21Y       0.055700
     28 H202        -7.4340    -0.5240    -1.1600 hc         1 21Y       0.055700
     29 H213        -8.8970     1.4700    -0.6670 hc         1 21Y       0.043700
     30 H212        -9.5090    -0.0090     0.0630 hc         1 21Y       0.043700
     31 H1          -8.6860     1.1860     1.0590 hc         1 21Y       0.043700
     32 H241        -3.4740    -2.5900     0.1490 h1         1 21Y       0.064450
     33 H242        -4.2050    -1.5340     1.3590 h1         1 21Y       0.064450
     34 H031        -0.2120     0.3500    -0.5590 h1         1 21Y       0.054700
     35 H032        -0.1230     0.2260     1.1930 h1         1 21Y       0.054700
     36 H041         0.9730    -2.1280     0.0390 hn         1 21Y       0.479800
     37 H061         1.7080     1.4770     0.1910 ha         1 21Y       0.145000
     38 H111         5.5760    -1.5450    -0.2890 ha         1 21Y       0.151000
     39 H143         4.9310    -3.5570     0.6530 h1         1 21Y       0.043367
     40 H141         3.7850    -4.6630    -0.1280 h1         1 21Y       0.043367
     41 H142         4.7760    -3.5780    -1.1190 h1         1 21Y       0.043367
     42 H162        -1.8710     1.2530     0.5380 h1         1 21Y       0.064450
     43 H161        -3.2000     0.8200     1.5980 h1         1 21Y       0.064450
     44 H232        -4.2690    -1.1650    -1.6730 h1         1 21Y       0.064700
     45 H231        -5.6120    -1.6190    -0.6410 h1         1 21Y       0.064700
@<TRIPOS>BOND
     1     1    20 1   
     2     1    21 1   
     3     1    25 1   
     4     1    26 1   
     5     2     3 1   
     6     2    22 1   
     7     2    27 1   
     8     2    28 1   
     9     3    29 1   
    10     3    30 1   
    11     3    31 1   
    12     4    19 1   
    13     4    24 1   
    14     4    32 1   
    15     4    33 1   
    16     5     6 2   
    17     6     7 1   
    18     6    19 1   
    19     7     8 1   
    20     7    34 1   
    21     7    35 1   
    22     8     9 1   
    23     8    36 1   
    24     9    10 ar  
    25     9    16 ar  
    26    10    11 ar  
    27    10    37 1   
    28    11    12 1   
    29    11    13 ar  
    30    13    14 1   
    31    13    15 ar  
    32    15    16 ar  
    33    15    38 1   
    34    16    17 1   
    35    17    18 1   
    36    18    39 1   
    37    18    40 1   
    38    18    41 1   
    39    19    20 1   
    40    20    42 1   
    41    20    43 1   
    42    21    22 1   
    43    21    24 1   
    44    22    23 2   
    45    24    44 1   
    46    24    45 1   
@<TRIPOS>SUBSTRUCTURE
     1 21Y         1 TEMP              0 ****  ****    0 ROOT
