@<TRIPOS>MOLECULE
21Y
   45    46     1     0     0
SMALL
No Charge or Current Charge


@<TRIPOS>ATOM
      1 C17         -4.0680     1.2720    -0.0500 c6         1 21Y       0.079500
      2 C20         -7.8030     0.0950    -0.0580 c3         1 21Y      -0.151400
      3 C21         -9.1640     0.8130     0.0930 c3         1 21Y      -0.077100
      4 C24         -3.7340    -1.6340    -0.0520 c6         1 21Y       0.076000
      5 O01         -1.1190    -2.5860     0.0020 o          1 21Y      -0.603100
      6 C02         -1.2400    -1.3620    -0.0070 c          1 21Y       0.599100
      7 C03          0.0200    -0.4230    -0.0100 c3         1 21Y       0.152800
      8 N04          1.3310    -1.1380    -0.1450 nu         1 21Y      -0.969200
      9 C05          2.6240    -0.5980    -0.1030 ca         1 21Y       0.343000
     10 C06          2.8150     0.7930    -0.1460 ca         1 21Y      -0.186000
     11 C07          4.1110     1.3310    -0.1050 ca         1 21Y       0.144000
     12 Cl1          4.3060     3.0830    -0.1610 cl         1 21Y      -0.184000
     13 C09          5.2290     0.4770    -0.0210 ca         1 21Y       0.094000
     14 Cl2          6.8690     1.1260     0.0320 cl         1 21Y      -0.182000
     15 C11          5.0510    -0.9160     0.0210 ca         1 21Y      -0.142000
     16 C12          3.7480    -1.4640    -0.0200 ca         1 21Y       0.075100
     17 O13          3.5310    -2.8370     0.0190 os         1 21Y      -0.349100
     18 C14          4.6080    -3.7880     0.1040 c3         1 21Y       0.151900
     19 N15         -2.5250    -0.7670    -0.0890 n          1 21Y      -0.408800
     20 C16         -2.7640     0.6020     0.4470 c6         1 21Y       0.076000
     21 N18         -5.2780     0.4060    -0.0070 n          1 21Y      -0.419800
     22 C19         -6.5580     1.0070    -0.0890 c          1 21Y       0.608100
     23 O22         -6.6740     2.2260    -0.1250 o          1 21Y      -0.598100
     24 C23         -5.0370    -0.9620    -0.5470 c6         1 21Y       0.079500
     25 H171        -4.2360     2.1790     0.5480 h1         1 21Y       0.064700
     26 H172        -3.9170     1.5970    -1.0900 h1         1 21Y       0.064700
     27 H201        -7.6570    -0.6560     0.7270 hc         1 21Y       0.055700
     28 H202        -7.7870    -0.5270    -0.9600 hc         1 21Y       0.055700
     29 H213        -9.3370     1.4990    -0.7450 hc         1 21Y       0.043700
     30 H212        -9.9820     0.0830     0.1110 hc         1 21Y       0.043700
     31 H1          -9.1980     1.3890     1.0260 hc         1 21Y       0.043700
     32 H241        -3.5640    -2.5380    -0.6550 h1         1 21Y       0.064450
     33 H242        -3.8850    -1.9650     0.9860 h1         1 21Y       0.064450
     34 H031        -0.1050     0.2880    -0.8380 h1         1 21Y       0.054700
     35 H032         0.0010     0.1480     0.9270 h1         1 21Y       0.054700
     36 H041         1.2990    -2.1640    -0.1120 hn         1 21Y       0.535000
     37 H061         1.9660     1.4640    -0.2130 ha         1 21Y       0.127000
     38 H111         5.9300    -1.5490     0.0850 ha         1 21Y       0.133000
     39 H143         5.1940    -3.6350     1.0190 h1         1 21Y       0.043367
     40 H141         4.2110    -4.8100     0.1220 h1         1 21Y       0.043367
     41 H142         5.2760    -3.6990    -0.7630 h1         1 21Y       0.043367
     42 H162        -1.9300     1.2700     0.1940 h1         1 21Y       0.064450
     43 H161        -2.8040     0.5380     1.5440 h1         1 21Y       0.064450
     44 H232        -4.9990    -0.8950    -1.6430 h1         1 21Y       0.064700
     45 H231        -5.8690    -1.6330    -0.2960 h1         1 21Y       0.064700
@<TRIPOS>BOND
     1     1    20 1   
     2     1    21 1   
     3     1    25 1   
     4     1    26 1   
     5     2     3 1   
     6     2    22 1   
     7     2    27 1   
     8     2    28 1   
     9     3    29 1   
    10     3    30 1   
    11     3    31 1   
    12     4    19 1   
    13     4    24 1   
    14     4    32 1   
    15     4    33 1   
    16     5     6 2   
    17     6     7 1   
    18     6    19 1   
    19     7     8 1   
    20     7    34 1   
    21     7    35 1   
    22     8     9 1   
    23     8    36 1   
    24     9    10 ar  
    25     9    16 ar  
    26    10    11 ar  
    27    10    37 1   
    28    11    12 1   
    29    11    13 ar  
    30    13    14 1   
    31    13    15 ar  
    32    15    16 ar  
    33    15    38 1   
    34    16    17 1   
    35    17    18 1   
    36    18    39 1   
    37    18    40 1   
    38    18    41 1   
    39    19    20 1   
    40    20    42 1   
    41    20    43 1   
    42    21    22 1   
    43    21    24 1   
    44    22    23 2   
    45    24    44 1   
    46    24    45 1   
@<TRIPOS>SUBSTRUCTURE
     1 21Y         1 TEMP              0 ****  ****    0 ROOT
