@<TRIPOS>MOLECULE
21Z
   39    41     1     0     0
SMALL
No Charge or Current Charge


@<TRIPOS>ATOM
      1 N01         -0.6320    -1.5700    -0.3760 nc         1 21Z      -0.805000
      2 N02          0.7670     0.1890     0.1510 nu         1 21Z      -0.920900
      3 N03         -2.1610    -3.0540    -0.8630 nv         1 21Z      -1.049900
      4 N04          6.1030     1.7230     1.3460 n8         1 21Z      -0.998100
      5 C05         -2.8270    -0.7940    -0.3470 cd         1 21Z      -0.465600
      6 C06         -1.9390    -1.8000    -0.5440 cc         1 21Z       0.692900
      7 C07         -0.4820    -0.3180    -0.0220 cd         1 21Z       0.759300
      8 C08         -4.2940    -0.9620    -0.3630 c          1 21Z       0.646300
      9 C09          2.0510    -0.3640     0.2620 ca         1 21Z       0.287000
     10 C10         -5.1560     0.2600    -0.1750 ca         1 21Z      -0.151600
     11 C11          3.1630     0.4740     0.0440 ca         1 21Z      -0.078000
     12 C12          4.4830    -0.0210     0.1550 ca         1 21Z      -0.285500
     13 C13          4.6900    -1.3730     0.5010 ca         1 21Z      -0.046000
     14 C14          3.5870    -2.2100     0.7350 ca         1 21Z      -0.102000
     15 C15          2.2770    -1.7100     0.6200 ca         1 21Z      -0.078000
     16 C16         -6.2330     0.2230     0.7370 ca         1 21Z      -0.075500
     17 C17         -7.0560     1.3500     0.9120 ca         1 21Z      -0.118500
     18 C18         -6.8170     2.5190     0.1710 ca         1 21Z      -0.095000
     19 C19         -5.7590     2.5580    -0.7520 ca         1 21Z      -0.118500
     20 C20         -4.9340     1.4340    -0.9290 ca         1 21Z      -0.075500
     21 O21         -4.8140    -2.0620    -0.5110 o          1 21Z      -0.591100
     22 O22          5.4980     2.1860    -0.9980 o          1 21Z      -0.527500
     23 O23          7.0960     0.2790    -0.3530 o          1 21Z      -0.527500
     24 S24         -1.9420     0.6690     0.0670 ss         1 21Z      -0.061400
     25 S25          5.8850     1.0680    -0.1370 sy         1 21Z       1.142600
     26 HN02         0.7420     1.2040     0.1600 hn         1 21Z       0.511000
     27 HN03        -1.4120    -3.6810    -0.6060 hn         1 21Z       0.518500
     28 HN0A        -3.1090    -3.3750    -0.6990 hn         1 21Z       0.518500
     29 HN04         5.6270     1.0530     1.9450 hn         1 21Z       0.477000
     30 HN0B         7.0890     1.5280     1.4990 hn         1 21Z       0.477000
     31 H11          2.9980     1.5160    -0.2200 ha         1 21Z       0.134000
     32 H13          5.6970    -1.7780     0.5940 ha         1 21Z       0.139000
     33 H14          3.7460    -3.2500     1.0110 ha         1 21Z       0.123000
     34 H15          1.4450    -2.3730     0.8270 ha         1 21Z       0.157000
     35 H16         -6.4280    -0.6780     1.3140 ha         1 21Z       0.122500
     36 H17         -7.8790     1.3150     1.6220 ha         1 21Z       0.115000
     37 H18         -7.4550     3.3900     0.3060 ha         1 21Z       0.113000
     38 H19         -5.5800     3.4600    -1.3340 ha         1 21Z       0.115000
     39 H20         -4.1310     1.4720    -1.6610 ha         1 21Z       0.122500
@<TRIPOS>BOND
     1     1     6 1   
     2     1     7 2   
     3     2     7 1   
     4     2     9 1   
     5     2    26 1   
     6     3     6 1   
     7     3    27 1   
     8     3    28 1   
     9     4    25 1   
    10     4    29 1   
    11     4    30 1   
    12     5     6 2   
    13     5     8 1   
    14     5    24 1   
    15     7    24 1   
    16     8    10 1   
    17     8    21 2   
    18     9    11 ar  
    19     9    15 ar  
    20    10    16 ar  
    21    10    20 ar  
    22    11    12 ar  
    23    11    31 1   
    24    12    13 ar  
    25    12    25 1   
    26    13    14 ar  
    27    13    32 1   
    28    14    15 ar  
    29    14    33 1   
    30    15    34 1   
    31    16    17 ar  
    32    16    35 1   
    33    17    18 ar  
    34    17    36 1   
    35    18    19 ar  
    36    18    37 1   
    37    19    20 ar  
    38    19    38 1   
    39    20    39 1   
    40    22    25 2   
    41    23    25 2   
@<TRIPOS>SUBSTRUCTURE
     1 21Z         1 TEMP              0 ****  ****    0 ROOT
