@<TRIPOS>MOLECULE
21Z
   39    41     1     0     0
SMALL
bcc


@<TRIPOS>ATOM
      1 N01         -0.6240    -1.7110    -0.0980 nc         1 21Z      -0.805000
      2 N02          0.7490     0.1930     0.0530 nu         1 21Z      -0.727300
      3 N03         -2.2980    -3.2990    -0.2180 nv         1 21Z      -0.939500
      4 N04          6.0950     1.4680     1.7520 n8         1 21Z      -0.887700
      5 C05         -2.8280    -0.9300    -0.1250 cd         1 21Z      -0.386000
      6 C06         -1.9450    -2.0190    -0.1500 cc         1 21Z       0.758200
      7 C07         -0.4450    -0.4250    -0.0130 cd         1 21Z       0.759300
      8 C08         -4.2480    -1.0070    -0.1040 c          1 21Z       0.646300
      9 C09          2.0320    -0.3520     0.0520 ca         1 21Z       0.148600
     10 C10         -5.0370     0.2620    -0.0960 ca         1 21Z      -0.151600
     11 C11          3.0900     0.5590     0.0790 ca         1 21Z      -0.096000
     12 C12          4.3920     0.0930     0.0820 ca         1 21Z      -0.285500
     13 C13          4.6860    -1.2640     0.0510 ca         1 21Z      -0.064000
     14 C14          3.6270    -2.1550     0.0240 ca         1 21Z      -0.120000
     15 C15          2.3100    -1.7190     0.0250 ca         1 21Z      -0.096000
     16 C16         -6.0870     0.3940     0.8120 ca         1 21Z      -0.093500
     17 C17         -6.8470     1.5530     0.8370 ca         1 21Z      -0.136500
     18 C18         -6.5860     2.5780    -0.0650 ca         1 21Z      -0.113000
     19 C19         -5.5610     2.4390    -0.9910 ca         1 21Z      -0.136500
     20 C20         -4.7850     1.2880    -1.0030 ca         1 21Z      -0.093500
     21 O21         -4.8450    -2.0870    -0.0650 o          1 21Z      -0.591100
     22 O22          5.2320     2.5460    -0.3090 o          1 21Z      -0.598300
     23 O23          6.8880     0.6540    -0.4560 o          1 21Z      -0.598300
     24 S24         -1.8850     0.5450     0.0070 ss         1 21Z      -0.206300
     25 S25          5.7260     1.2650     0.1650 sy         1 21Z       1.284200
     26 HN02         0.7210     1.2010     0.1040 hn         1 21Z       0.455800
     27 HN03        -1.5940    -4.0160    -0.2290 hn         1 21Z       0.463300
     28 HN0A        -3.2720    -3.5530    -0.2300 hn         1 21Z       0.463300
     29 HN04         5.3450     1.8750     2.2980 hn         1 21Z       0.421800
     30 HN0B         6.4670     0.6370     2.1990 hn         1 21Z       0.421800
     31 H11          2.8880     1.6230     0.0930 ha         1 21Z       0.152000
     32 H13          5.7060    -1.6220     0.0420 ha         1 21Z       0.157000
     33 H14          3.8250    -3.2180    -0.0020 ha         1 21Z       0.141000
     34 H15          1.5100    -2.4400     0.0010 ha         1 21Z       0.175000
     35 H16         -6.2980    -0.4050     1.5120 ha         1 21Z       0.140500
     36 H17         -7.6470     1.6550     1.5580 ha         1 21Z       0.133000
     37 H18         -7.1840     3.4790    -0.0490 ha         1 21Z       0.131000
     38 H19         -5.3670     3.2250    -1.7090 ha         1 21Z       0.133000
     39 H20         -4.0030     1.1840    -1.7450 ha         1 21Z       0.140500
@<TRIPOS>BOND
     1     1     6 1   
     2     1     7 2   
     3     2     7 1   
     4     2     9 1   
     5     2    26 1   
     6     3     6 1   
     7     3    27 1   
     8     3    28 1   
     9     4    25 1   
    10     4    29 1   
    11     4    30 1   
    12     5     6 2   
    13     5     8 1   
    14     5    24 1   
    15     7    24 1   
    16     8    10 1   
    17     8    21 2   
    18     9    11 ar  
    19     9    15 ar  
    20    10    16 ar  
    21    10    20 ar  
    22    11    12 ar  
    23    11    31 1   
    24    12    13 ar  
    25    12    25 1   
    26    13    14 ar  
    27    13    32 1   
    28    14    15 ar  
    29    14    33 1   
    30    15    34 1   
    31    16    17 ar  
    32    16    35 1   
    33    17    18 ar  
    34    17    36 1   
    35    18    19 ar  
    36    18    37 1   
    37    19    20 ar  
    38    19    38 1   
    39    20    39 1   
    40    22    25 2   
    41    23    25 2   
@<TRIPOS>SUBSTRUCTURE
     1 21Z         1 TEMP              0 ****  ****    0 ROOT
