@<TRIPOS>MOLECULE
220
   39    38     1     0     0
SMALL
No Charge or Current Charge


@<TRIPOS>ATOM
      1 O1           4.9780     2.9150    -0.2470 o          1 220      -0.503100
      2 C1           5.1160     1.7970     0.2370 c          1 220       0.575900
      3 C2           4.0190     1.0930     1.0430 c3         1 220      -0.203400
      4 C3           2.9610     0.4380     0.1220 c3         1 220      -0.061400
      5 C4           1.8040    -0.2170     0.9060 c3         1 220      -0.057200
      6 C5           0.7380    -0.7910    -0.0150 c2         1 220      -0.142200
      7 C6           0.3640    -2.0900    -0.1630 ce         1 220      -0.223400
      8 C7           0.9910    -3.2380     0.6300 c3         1 220      -0.019200
      9 C8           2.3630    -3.6670     0.0670 c3         1 220      -0.055200
     10 C9           3.0470    -4.7290     0.9130 c2         1 220      -0.141200
     11 C10          4.3810    -4.9680     1.0010 ce         1 220      -0.228400
     12 C11          5.4190    -4.1640     0.2170 c3         1 220      -0.014200
     13 C12          5.8490    -2.8780     0.9580 c3         1 220      -0.196400
     14 C13          6.8420    -2.0650     0.1270 c          1 220       0.567900
     15 O2           6.4960    -1.2760    -0.7450 o          1 220      -0.512100
     16 C14          4.8850    -6.0810     1.8800 c          1 220       0.569100
     17 O3           6.0700    -6.3680     2.0220 o          1 220      -0.519100
     18 C15         -0.7310    -2.4380    -1.1370 c          1 220       0.570100
     19 O4          -1.1350    -3.5760    -1.3510 o          1 220      -0.516100
     20 H1           6.0690     1.2360     0.1230 h4         1 220      -0.010800
     21 H21          3.5240     1.8280     1.6880 hc         1 220       0.057700
     22 H22          4.4810     0.3010     1.6440 hc         1 220       0.057700
     23 H31          3.4440    -0.3180    -0.5120 hc         1 220       0.057700
     24 H32          2.5490     1.2000    -0.5520 hc         1 220       0.057700
     25 H41          1.3450     0.5380     1.5560 hc         1 220       0.049700
     26 H42          2.2190    -0.9780     1.5750 hc         1 220       0.049700
     27 H5           0.2400    -0.0190    -0.6070 ha         1 220       0.173000
     28 H71          0.3320    -4.1140     0.6530 hc         1 220       0.052700
     29 H72          1.1110    -2.9510     1.6820 hc         1 220       0.052700
     30 H81          2.9950    -2.7770    -0.0160 hc         1 220       0.062200
     31 H82          2.2250    -4.0410    -0.9550 hc         1 220       0.062200
     32 H9           2.3500    -5.3450     1.4860 ha         1 220       0.174000
     33 H111         5.0210    -3.8940    -0.7700 hc         1 220       0.066700
     34 H112         6.3090    -4.7710     0.0060 hc         1 220       0.066700
     35 H121         4.9670    -2.2650     1.1720 hc         1 220       0.065700
     36 H122         6.3420    -3.1830     1.8880 hc         1 220       0.065700
     37 H13          7.9170    -2.2320     0.3590 h4         1 220      -0.020800
     38 H14          4.1000    -6.6550     2.4210 h4         1 220      -0.014800
     39 H15         -1.1730    -1.5750    -1.6830 h4         1 220      -0.012800
@<TRIPOS>BOND
     1     1     2 2   
     2     2     3 1   
     3     2    20 1   
     4     3     4 1   
     5     3    21 1   
     6     3    22 1   
     7     4     5 1   
     8     4    23 1   
     9     4    24 1   
    10     5     6 1   
    11     5    25 1   
    12     5    26 1   
    13     6     7 2   
    14     6    27 1   
    15     7     8 1   
    16     7    18 1   
    17     8     9 1   
    18     8    28 1   
    19     8    29 1   
    20     9    10 1   
    21     9    30 1   
    22     9    31 1   
    23    10    11 2   
    24    10    32 1   
    25    11    12 1   
    26    11    16 1   
    27    12    13 1   
    28    12    33 1   
    29    12    34 1   
    30    13    14 1   
    31    13    35 1   
    32    13    36 1   
    33    14    15 2   
    34    14    37 1   
    35    16    17 2   
    36    16    38 1   
    37    18    19 2   
    38    18    39 1   
@<TRIPOS>SUBSTRUCTURE
     1 220         1 TEMP              0 ****  ****    0 ROOT
