@<TRIPOS>MOLECULE
220
   39    38     1     0     0
SMALL
abcg2


@<TRIPOS>ATOM
      1 O1           5.3700     1.1420    -1.4300 o          1 220      -0.503100
      2 C1           5.3520     1.3320    -0.2390 c          1 220       0.575900
      3 C2           4.2110     0.9920     0.6630 c3         1 220      -0.203400
      4 C3           3.0600     0.2500     0.0060 c3         1 220      -0.061400
      5 C4           1.9860    -0.1300     1.0330 c3         1 220      -0.057200
      6 C5           0.7940    -0.7350     0.3750 c2         1 220      -0.142200
      7 C6           0.4940    -2.0380     0.2660 ce         1 220      -0.223400
      8 C7           1.3270    -3.1740     0.7760 c3         1 220      -0.019200
      9 C8           2.1780    -3.7890    -0.3500 c3         1 220      -0.055200
     10 C9           3.0230    -4.9030     0.1600 c2         1 220      -0.141200
     11 C10          4.3470    -4.8820     0.3720 ce         1 220      -0.228400
     12 C11          5.2540    -3.7100     0.1400 c3         1 220      -0.014200
     13 C12          5.5190    -2.9540     1.4370 c3         1 220      -0.196400
     14 C13          6.4140    -1.7660     1.3030 c          1 220       0.567900
     15 O2           6.8880    -1.3710     0.2660 o          1 220      -0.512100
     16 C14          4.9290    -6.1130     0.9160 c          1 220       0.569100
     17 O3           6.1020    -6.2610     1.1820 o          1 220      -0.519100
     18 C15         -0.7430    -2.3520    -0.4580 c          1 220       0.570100
     19 O4          -1.1660    -3.4710    -0.6480 o          1 220      -0.516100
     20 H1           6.2090     1.8070     0.2710 h4         1 220      -0.010800
     21 H21          3.8680     1.9380     1.1010 hc         1 220       0.057700
     22 H22          4.6140     0.4370     1.5180 hc         1 220       0.057700
     23 H31          3.4250    -0.6560    -0.4850 hc         1 220       0.057700
     24 H32          2.6190     0.8680    -0.7790 hc         1 220       0.057700
     25 H41          1.6690     0.7710     1.5640 hc         1 220       0.049700
     26 H42          2.4160    -0.8020     1.7790 hc         1 220       0.049700
     27 H5           0.1120    -0.0250    -0.0870 ha         1 220       0.173000
     28 H71          0.6840    -3.9430     1.2090 hc         1 220       0.052700
     29 H72          1.9840    -2.8360     1.5790 hc         1 220       0.052700
     30 H81          2.7840    -3.0090    -0.8110 hc         1 220       0.062200
     31 H82          1.5150    -4.1800    -1.1250 hc         1 220       0.062200
     32 H9           2.4870    -5.8170     0.4080 ha         1 220       0.174000
     33 H111         4.8200    -3.0360    -0.5990 hc         1 220       0.066700
     34 H112         6.2000    -4.0560    -0.2800 hc         1 220       0.066700
     35 H121         4.5860    -2.5980     1.8920 hc         1 220       0.065700
     36 H122         5.9630    -3.6030     2.2000 hc         1 220       0.065700
     37 H13          6.6200    -1.2420     2.2540 h4         1 220      -0.020800
     38 H14          4.2060    -6.9340     1.0730 h4         1 220      -0.014800
     39 H15         -1.2930    -1.4690    -0.8320 h4         1 220      -0.012800
@<TRIPOS>BOND
     1     1     2 2   
     2     2     3 1   
     3     2    20 1   
     4     3     4 1   
     5     3    21 1   
     6     3    22 1   
     7     4     5 1   
     8     4    23 1   
     9     4    24 1   
    10     5     6 1   
    11     5    25 1   
    12     5    26 1   
    13     6     7 2   
    14     6    27 1   
    15     7     8 1   
    16     7    18 1   
    17     8     9 1   
    18     8    28 1   
    19     8    29 1   
    20     9    10 1   
    21     9    30 1   
    22     9    31 1   
    23    10    11 2   
    24    10    32 1   
    25    11    12 1   
    26    11    16 1   
    27    12    13 1   
    28    12    33 1   
    29    12    34 1   
    30    13    14 1   
    31    13    35 1   
    32    13    36 1   
    33    14    15 2   
    34    14    37 1   
    35    16    17 2   
    36    16    38 1   
    37    18    19 2   
    38    18    39 1   
@<TRIPOS>SUBSTRUCTURE
     1 220         1 TEMP              0 ****  ****    0 ROOT
