@<TRIPOS>MOLECULE
221
   32    32     1     0     0
SMALL
bcc


@<TRIPOS>ATOM
      1 C1           0.1560     1.0790    -4.9550 ca         1 221      -0.080000
      2 C2          -0.7870     1.7710    -4.2060 ca         1 221      -0.155800
      3 C3          -0.6190     1.9740    -2.8500 ca         1 221      -0.134500
      4 C4           0.5110     1.4790    -2.1910 ca         1 221       0.177600
      5 C5           1.4650     0.7890    -2.9410 ca         1 221      -0.134500
      6 C6           1.2800     0.5990    -4.3030 ca         1 221      -0.155800
      7 C7          -2.0330     2.3070    -4.8460 c3         1 221       0.722200
      8 C8           2.3130    -0.1860    -5.0550 c3         1 221       0.722200
      9 N9           0.6210     1.6720    -0.8340 nu         1 221      -0.754600
     10 C10          1.8190     1.4250    -0.0990 c3         1 221       0.349600
     11 C11          2.8700     2.5610    -0.2750 c3         1 221      -0.138600
     12 C12          4.2240     2.1960     0.3430 c          1 221       0.676100
     13 N13          4.9730     1.4090    -0.4300 nt         1 221      -0.667000
     14 S14          1.2790     1.1860     1.6260 sh         1 221      -0.357900
     15 O15          4.5270     2.5700     1.4610 o          1 221      -0.570100
     16 C16          2.3800     3.8060     0.2920 c1         1 221       0.212700
     17 N17          1.9690     4.7920     0.7140 n1         1 221      -0.321800
     18 F18         -2.0520     2.1250    -6.1680 f          1 221      -0.230467
     19 F19         -3.1280     1.7160    -4.3500 f          1 221      -0.230467
     20 F20         -2.1750     3.6210    -4.6270 f          1 221      -0.230467
     21 F21          2.2260    -0.0100    -6.3750 f          1 221      -0.230467
     22 F22          3.5560     0.1510    -4.6910 f          1 221      -0.230467
     23 F23          2.1870    -1.5000    -4.8260 f          1 221      -0.230467
     24 H1           0.0190     0.9230    -6.0150 ha         1 221       0.171000
     25 H3          -1.3610     2.5180    -2.2760 ha         1 221       0.148500
     26 H5           2.3490     0.3850    -2.4660 ha         1 221       0.148500
     27 HN9         -0.0130     2.3490    -0.4350 hn         1 221       0.451800
     28 H11          2.9930     2.7220    -1.3520 hc         1 221       0.094700
     29 H131         5.8690     1.0820    -0.1030 hn         1 221       0.324000
     30 H132         4.7340     1.1960    -1.3830 hn         1 221       0.324000
     31 HS           2.4820     1.2310     2.2070 hs         1 221       0.243800
     32 H10          2.2740     0.4960    -0.4440 h2         1 221       0.087700
@<TRIPOS>BOND
     1     1     2 ar  
     2     1     6 ar  
     3     1    24 1   
     4     2     3 ar  
     5     2     7 1   
     6     3     4 ar  
     7     3    25 1   
     8     4     5 ar  
     9     4     9 1   
    10     5     6 ar  
    11     5    26 1   
    12     6     8 1   
    13     7    18 1   
    14     7    19 1   
    15     7    20 1   
    16     8    21 1   
    17     8    22 1   
    18     8    23 1   
    19     9    10 1   
    20     9    27 1   
    21    10    11 1   
    22    10    14 1   
    23    10    32 1   
    24    11    12 1   
    25    11    16 1   
    26    11    28 1   
    27    12    13 1   
    28    12    15 2   
    29    13    29 1   
    30    13    30 1   
    31    14    31 1   
    32    16    17 3   
@<TRIPOS>SUBSTRUCTURE
     1 221         1 TEMP              0 ****  ****    0 ROOT
