@<TRIPOS>MOLECULE
221
   32    32     1     0     0
SMALL
No Charge or Current Charge


@<TRIPOS>ATOM
      1 C1          -0.0690     0.8980    -4.9670 ca         1 221      -0.062000
      2 C2          -1.0230     1.6290    -4.2270 ca         1 221      -0.155800
      3 C3          -0.6730     2.1040    -2.9430 ca         1 221      -0.116500
      4 C4           0.6020     1.8640    -2.4090 ca         1 221       0.316000
      5 C5           1.5460     1.1480    -3.1650 ca         1 221      -0.116500
      6 C6           1.2230     0.6610    -4.4520 ca         1 221      -0.155800
      7 C7          -2.4250     1.8740    -4.7990 c3         1 221       0.358300
      8 C8           2.2500    -0.1360    -5.2660 c3         1 221       0.358300
      9 N9           0.9080     2.3510    -1.1360 nu         1 221      -0.948200
     10 C10          1.8200     1.7400    -0.1800 c3         1 221       0.397500
     11 C11          3.1640     2.4920    -0.1450 c3         1 221      -0.138600
     12 C12          4.1930     1.6910     0.6420 c          1 221       0.609100
     13 N13          5.3640     1.4310     0.0190 nt         1 221      -0.600000
     14 S14          0.8800     1.7340     1.3960 sh         1 221      -0.405800
     15 O15          4.0160     1.3110     1.7870 o          1 221      -0.570100
     16 C16          3.0510     3.8490     0.3890 c1         1 221       0.301900
     17 N17          2.9920     4.9370     0.8000 n1         1 221      -0.411000
     18 F18         -2.4120     2.0170    -6.1440 f          1 221      -0.109167
     19 F19         -3.2560     0.8450    -4.5190 f          1 221      -0.109167
     20 F20         -3.0000     2.9930    -4.2990 f          1 221      -0.109167
     21 F21          2.1020     0.0450    -6.5990 f          1 221      -0.109167
     22 F22          3.5240     0.2090    -4.9710 f          1 221      -0.109167
     23 F23          2.1370    -1.4630    -5.0340 f          1 221      -0.109167
     24 H1          -0.3360     0.5080    -5.9490 ha         1 221       0.153000
     25 H3          -1.3980     2.6550    -2.3510 ha         1 221       0.130500
     26 H5           2.5330     0.9650    -2.7540 ha         1 221       0.130500
     27 HN9          0.1590     2.8870    -0.7000 hn         1 221       0.507000
     28 H11          3.5300     2.5950    -1.1710 hc         1 221       0.094700
     29 H131         6.0770     0.9140     0.5130 hn         1 221       0.324000
     30 H132         5.5290     1.7550    -0.9220 hn         1 221       0.324000
     31 HS           1.9060     1.2450     2.1400 hs         1 221       0.243800
     32 H10          1.9940     0.6850    -0.4360 h2         1 221       0.087700
@<TRIPOS>BOND
     1     1     2 ar  
     2     1     6 ar  
     3     1    24 1   
     4     2     3 ar  
     5     2     7 1   
     6     3     4 ar  
     7     3    25 1   
     8     4     5 ar  
     9     4     9 1   
    10     5     6 ar  
    11     5    26 1   
    12     6     8 1   
    13     7    18 1   
    14     7    19 1   
    15     7    20 1   
    16     8    21 1   
    17     8    22 1   
    18     8    23 1   
    19     9    10 1   
    20     9    27 1   
    21    10    11 1   
    22    10    14 1   
    23    10    32 1   
    24    11    12 1   
    25    11    16 1   
    26    11    28 1   
    27    12    13 1   
    28    12    15 2   
    29    13    29 1   
    30    13    30 1   
    31    14    31 1   
    32    16    17 3   
@<TRIPOS>SUBSTRUCTURE
     1 221         1 TEMP              0 ****  ****    0 ROOT
