@<TRIPOS>MOLECULE
222
   56    60     1     0     0
SMALL
abcg2


@<TRIPOS>ATOM
      1 C13         -1.4290    -2.5440     0.7480 c          1 222       0.535200
      2 C1          -2.3440     0.1440    -0.5240 ca         1 222      -0.075000
      3 C2          -2.7020    -0.4950     0.6530 ca         1 222       0.068600
      4 C3          -3.9710    -0.2930     1.1840 ca         1 222       0.131000
      5 C4          -4.8760     0.5370     0.5440 ca         1 222      -0.107000
      6 C5          -4.5120     1.1660    -0.6360 ca         1 222      -0.100000
      7 C6          -3.2470     0.9730    -1.1710 ca         1 222      -0.103000
      8 C14         -0.4610    -3.2870     1.5320 cc         1 222      -0.246200
      9 N11         -1.7720    -1.3410     1.3120 n          1 222      -0.040000
     10 CL1         -4.4390    -1.0780     2.6480 cl         1 222      -0.182000
     11 C15         -0.0240    -2.8300     2.7170 cd         1 222      -0.247600
     12 C16         -0.5400    -1.5800     3.2030 cd         1 222       0.604500
     13 N17         -1.3590    -0.8690     2.5010 nc         1 222      -0.501300
     14 O18         -1.9020    -2.9240    -0.3160 o          1 222      -0.536000
     15 N21         -0.1710    -1.0860     4.4310 nh         1 222      -0.782400
     16 C22         -0.8850     0.0720     4.9540 c3         1 222       0.239800
     17 C23          0.5580    -1.8860     5.3320 ca         1 222       0.258000
     18 C33          1.9120    -1.6570     5.5440 ca         1 222      -0.067000
     19 C34          2.6400    -2.4130     6.4490 ca         1 222      -0.151000
     20 C35          1.9850    -3.4130     7.1400 ca         1 222       0.187000
     21 C36          0.6400    -3.6810     6.9650 ca         1 222      -0.147000
     22 C37         -0.0620    -2.9040     6.0600 ca         1 222       0.125000
     23 CL2         -1.7420    -3.2030     5.8160 cl         1 222      -0.166000
     24 F42          2.6710    -4.1580     8.0130 f          1 222      -0.168000
     25 C24         -0.3150     1.3910     4.4500 c3         1 222      -0.106400
     26 C27         -1.1640     2.5910     4.8490 c3         1 222       0.116000
     27 N30         -2.4000     2.7070     4.0960 n          1 222      -0.391400
     28 C43         -3.6440     2.2840     4.5390 c          1 222       0.590600
     29 C44         -4.6130     2.6950     3.4950 ca         1 222      -0.141100
     30 C45         -3.9130     3.3480     2.4950 ca         1 222      -0.141100
     31 C46         -2.4800     3.3470     2.8680 c          1 222       0.590600
     32 C47         -5.9820     2.5510     3.4450 ca         1 222      -0.044500
     33 C48         -6.6400     3.1060     2.3480 ca         1 222      -0.104000
     34 C49         -5.9370     3.7690     1.3470 ca         1 222      -0.104000
     35 C50         -4.5500     3.8960     1.4030 ca         1 222      -0.044500
     36 O55         -3.8620     1.7180     5.5800 o          1 222      -0.490500
     37 O56         -1.5460     3.8170     2.2680 o          1 222      -0.490500
     38 H4          -5.8590     0.6910     0.9670 ha         1 222       0.128000
     39 H5          -5.2210     1.8150    -1.1320 ha         1 222       0.115000
     40 H6          -2.9590     1.4680    -2.0890 ha         1 222       0.122000
     41 H14         -0.1110    -4.2280     1.1290 ha         1 222       0.214000
     42 H15          0.7000    -3.3930     3.2900 ha         1 222       0.202000
     43 H221        -1.9400    -0.0250     4.6900 h1         1 222       0.061700
     44 H222        -0.8240     0.0380     6.0430 h1         1 222       0.061700
     45 H33          2.4010    -0.8720     4.9810 ha         1 222       0.135000
     46 H34          3.6930    -2.2290     6.6100 ha         1 222       0.142000
     47 H36          0.1570    -4.4720     7.5210 ha         1 222       0.152000
     48 H241         0.6860     1.5350     4.8640 hc         1 222       0.061700
     49 H242        -0.2070     1.3660     3.3650 hc         1 222       0.061700
     50 H271        -1.4220     2.5510     5.9070 h1         1 222       0.062700
     51 H272        -0.5980     3.5100     4.6980 h1         1 222       0.062700
     52 H47         -6.5300     2.0390     4.2250 ha         1 222       0.138500
     53 H48         -7.7160     3.0210     2.2730 ha         1 222       0.121000
     54 H49         -6.4770     4.1890     0.5090 ha         1 222       0.121000
     55 H50         -4.0030     4.4030     0.6210 ha         1 222       0.138500
     56 H1          -1.3510    -0.0060    -0.9260 ha         1 222       0.131000
@<TRIPOS>BOND
     1     1     8 1   
     2     1     9 1   
     3     1    14 2   
     4     2     3 ar  
     5     2     7 ar  
     6     2    56 1   
     7     3     4 ar  
     8     3     9 1   
     9     4     5 ar  
    10     4    10 1   
    11     5     6 ar  
    12     5    38 1   
    13     6     7 ar  
    14     6    39 1   
    15     7    40 1   
    16     8    11 2   
    17     8    41 1   
    18     9    13 1   
    19    11    12 1   
    20    11    42 1   
    21    12    13 2   
    22    12    15 1   
    23    15    16 1   
    24    15    17 1   
    25    16    25 1   
    26    16    43 1   
    27    16    44 1   
    28    17    18 ar  
    29    17    22 ar  
    30    18    19 ar  
    31    18    45 1   
    32    19    20 ar  
    33    19    46 1   
    34    20    21 ar  
    35    20    24 1   
    36    21    22 ar  
    37    21    47 1   
    38    22    23 1   
    39    25    26 1   
    40    25    48 1   
    41    25    49 1   
    42    26    27 1   
    43    26    50 1   
    44    26    51 1   
    45    27    28 1   
    46    27    31 1   
    47    28    29 1   
    48    28    36 2   
    49    29    30 ar  
    50    29    32 ar  
    51    30    31 1   
    52    30    35 ar  
    53    31    37 2   
    54    32    33 ar  
    55    32    52 1   
    56    33    34 ar  
    57    33    53 1   
    58    34    35 ar  
    59    34    54 1   
    60    35    55 1   
@<TRIPOS>SUBSTRUCTURE
     1 222         1 TEMP              0 ****  ****    0 ROOT
