@<TRIPOS>MOLECULE
222
   56    60     1     0     0
SMALL
No Charge or Current Charge


@<TRIPOS>ATOM
      1 C13         -1.3620    -2.4710     0.6190 c          1 222       0.535200
      2 C1          -2.4790     0.2550    -0.4950 ca         1 222      -0.075000
      3 C2          -2.8610    -0.4950     0.6360 ca         1 222       0.068600
      4 C3          -4.1950    -0.4130     1.1020 ca         1 222       0.131000
      5 C4          -5.1260     0.3970     0.4300 ca         1 222      -0.107000
      6 C5          -4.7380     1.1340    -0.7020 ca         1 222      -0.100000
      7 C6          -3.4130     1.0680    -1.1600 ca         1 222      -0.103000
      8 C14         -0.3440    -3.1830     1.4100 cc         1 222      -0.246200
      9 N11         -1.8900    -1.3310     1.2830 n          1 222      -0.040000
     10 Cl1         -4.7450    -1.3370     2.5030 cl         1 222      -0.182000
     11 C15          0.0370    -2.7640     2.6770 cd         1 222      -0.247600
     12 C16         -0.5960    -1.5910     3.2290 cd         1 222       0.604500
     13 N17         -1.5060    -0.9020     2.5480 nc         1 222      -0.501300
     14 O18         -1.7130    -2.8310    -0.4990 o          1 222      -0.536000
     15 N21         -0.2700    -1.1170     4.5110 nh         1 222      -0.782400
     16 C22         -0.8520     0.1420     5.0330 c3         1 222       0.239800
     17 C23          0.4450    -1.9270     5.4240 ca         1 222       0.258000
     18 C33          1.7470    -1.5450     5.8010 ca         1 222      -0.067000
     19 C34          2.4890    -2.3240     6.7080 ca         1 222      -0.151000
     20 C35          1.9290    -3.4910     7.2480 ca         1 222       0.187000
     21 C36          0.6310    -3.8830     6.8920 ca         1 222      -0.147000
     22 C37         -0.1130    -3.1070     5.9860 ca         1 222       0.125000
     23 Cl2         -1.7550    -3.6280     5.5890 cl         1 222      -0.166000
     24 F42          2.6410    -4.2370     8.1200 f          1 222      -0.168000
     25 C24         -0.1730     1.4110     4.4750 c3         1 222      -0.106400
     26 C27         -0.9480     2.7090     4.7750 c3         1 222       0.116000
     27 N30         -2.2300     2.7980     4.0480 n          1 222      -0.391400
     28 C43         -3.4580     2.4280     4.5980 c          1 222       0.590600
     29 C44         -4.4660     2.7570     3.5500 ca         1 222      -0.141100
     30 C45         -3.8030     3.3170     2.4650 ca         1 222      -0.141100
     31 C46         -2.3450     3.3570     2.7740 c          1 222       0.590600
     32 C47         -5.8590     2.5940     3.5550 ca         1 222      -0.044500
     33 C48         -6.5760     3.0280     2.4190 ca         1 222      -0.104000
     34 C49         -5.9010     3.6090     1.3170 ca         1 222      -0.104000
     35 C50         -4.4970     3.7570     1.3300 ca         1 222      -0.044500
     36 O55         -3.6580     1.9520     5.7060 o          1 222      -0.490500
     37 O56         -1.4430     3.7910     2.0730 o          1 222      -0.490500
     38 H4          -6.1510     0.4510     0.7870 ha         1 222       0.128000
     39 H5          -5.4630     1.7600    -1.2190 ha         1 222       0.115000
     40 H6          -3.1100     1.6420    -2.0330 ha         1 222       0.122000
     41 H14          0.0870    -4.0570     0.9330 ha         1 222       0.214000
     42 H15          0.7920    -3.3040     3.2340 ha         1 222       0.202000
     43 H221        -1.9260     0.1650     4.8080 h1         1 222       0.061700
     44 H222        -0.7780     0.1650     6.1290 h1         1 222       0.061700
     45 H33          2.1850    -0.6440     5.3790 ha         1 222       0.135000
     46 H34          3.4960    -2.0260     6.9910 ha         1 222       0.142000
     47 H36          0.2010    -4.7840     7.3200 ha         1 222       0.152000
     48 H241         0.8330     1.4880     4.9020 hc         1 222       0.061700
     49 H242        -0.0480     1.3220     3.3900 hc         1 222       0.061700
     50 H271        -1.1320     2.7860     5.8550 h1         1 222       0.062700
     51 H272        -0.3240     3.5670     4.4920 h1         1 222       0.062700
     52 H47         -6.3700     2.1550     4.4090 ha         1 222       0.138500
     53 H48         -7.6580     2.9190     2.3920 ha         1 222       0.121000
     54 H49         -6.4690     3.9400     0.4500 ha         1 222       0.121000
     55 H50         -3.9710     4.2000     0.4860 ha         1 222       0.138500
     56 H1          -1.4550     0.2040    -0.8580 ha         1 222       0.131000
@<TRIPOS>BOND
     1     1     8 1   
     2     1     9 1   
     3     1    14 2   
     4     2     3 ar  
     5     2     7 ar  
     6     2    56 1   
     7     3     4 ar  
     8     3     9 1   
     9     4     5 ar  
    10     4    10 1   
    11     5     6 ar  
    12     5    38 1   
    13     6     7 ar  
    14     6    39 1   
    15     7    40 1   
    16     8    11 2   
    17     8    41 1   
    18     9    13 1   
    19    11    12 1   
    20    11    42 1   
    21    12    13 2   
    22    12    15 1   
    23    15    16 1   
    24    15    17 1   
    25    16    25 1   
    26    16    43 1   
    27    16    44 1   
    28    17    18 ar  
    29    17    22 ar  
    30    18    19 ar  
    31    18    45 1   
    32    19    20 ar  
    33    19    46 1   
    34    20    21 ar  
    35    20    24 1   
    36    21    22 ar  
    37    21    47 1   
    38    22    23 1   
    39    25    26 1   
    40    25    48 1   
    41    25    49 1   
    42    26    27 1   
    43    26    50 1   
    44    26    51 1   
    45    27    28 1   
    46    27    31 1   
    47    28    29 1   
    48    28    36 2   
    49    29    30 ar  
    50    29    32 ar  
    51    30    31 1   
    52    30    35 ar  
    53    31    37 2   
    54    32    33 ar  
    55    32    52 1   
    56    33    34 ar  
    57    33    53 1   
    58    34    35 ar  
    59    34    54 1   
    60    35    55 1   
@<TRIPOS>SUBSTRUCTURE
     1 222         1 TEMP              0 ****  ****    0 ROOT
