@<TRIPOS>MOLECULE
224
   37    39     1     0     0
SMALL
abcg2


@<TRIPOS>ATOM
      1 C1          -2.2100     0.5650    -4.3110 cc         1 224      -0.224000
      2 N1          -1.3850    -0.5230    -4.3830 na         1 224      -0.163500
      3 C2          -3.4760     0.0720    -4.4450 cd         1 224       0.218900
      4 N2          -3.4420    -1.2880    -4.5880 nd         1 224      -0.677000
      5 C3          -2.1750    -1.6070    -4.5400 cc         1 224       0.393400
      6 C4           0.0440    -0.5400    -4.1990 c3         1 224       0.061600
      7 C5           0.4210    -0.6080    -2.7160 c5         1 224       0.375000
      8 O1          -0.2540    -1.6840    -2.1030 os         1 224      -0.469500
      9 O2          -0.0380     0.5650    -2.0940 os         1 224      -0.469500
     10 C6          -0.6340     0.2020    -0.8630 c5         1 224       0.124600
     11 C7          -1.1920    -1.1730    -1.1710 c5         1 224       0.124600
     12 C8           1.9230    -0.8050    -2.5170 c3         1 224      -0.095400
     13 C9           2.7860     0.3250    -3.0840 c3         1 224      -0.028100
     14 C10          4.2380     0.1060    -2.7640 ca         1 224      -0.081300
     15 C11          4.7810     0.5690    -1.5680 ca         1 224      -0.099000
     16 C12          5.0640    -0.6040    -3.6300 ca         1 224      -0.099000
     17 C13          6.3950    -0.8480    -3.3210 ca         1 224      -0.101000
     18 C14          6.1080     0.3370    -1.2400 ca         1 224      -0.101000
     19 C15          6.9050    -0.3730    -2.1240 ca         1 224       0.120000
     20 CL           8.5690    -0.6680    -1.7280 cl         1 224      -0.204000
     21 H1          -1.8350     1.5660    -4.1850 h4         1 224       0.160000
     22 H2          -4.4030     0.6250    -4.4510 h4         1 224       0.036100
     23 H3          -1.7680    -2.6040    -4.6240 h5         1 224       0.056100
     24 H41          0.4530    -1.4060    -4.7220 h1         1 224       0.075200
     25 H42          0.4690     0.3500    -4.6630 h1         1 224       0.075200
     26 H61         -1.3990     0.9340    -0.6060 h1         1 224       0.065200
     27 H62          0.1060     0.1680    -0.0560 h1         1 224       0.065200
     28 H71         -1.2300    -1.8280    -0.3000 h1         1 224       0.065200
     29 H72         -2.1930    -1.1140    -1.6110 h1         1 224       0.065200
     30 H81          2.2180    -1.7550    -2.9700 hc         1 224       0.063200
     31 H82          2.1140    -0.9010    -1.4440 hc         1 224       0.063200
     32 H91          2.4570     1.2800    -2.6690 hc         1 224       0.054700
     33 H92          2.6630     0.3920    -4.1680 hc         1 224       0.054700
     34 H11          4.1610     1.1270    -0.8760 ha         1 224       0.116000
     35 H12          4.6690    -0.9740    -4.5690 ha         1 224       0.116000
     36 H13          7.0230    -1.3990    -4.0090 ha         1 224       0.130000
     37 H14          6.5140     0.7080    -0.3080 ha         1 224       0.130000
@<TRIPOS>BOND
     1     1     2 1   
     2     1     3 2   
     3     1    21 1   
     4     2     5 1   
     5     2     6 1   
     6     3     4 1   
     7     3    22 1   
     8     4     5 2   
     9     5    23 1   
    10     6     7 1   
    11     6    24 1   
    12     6    25 1   
    13     7     8 1   
    14     7     9 1   
    15     7    12 1   
    16     8    11 1   
    17     9    10 1   
    18    10    11 1   
    19    10    26 1   
    20    10    27 1   
    21    11    28 1   
    22    11    29 1   
    23    12    13 1   
    24    12    30 1   
    25    12    31 1   
    26    13    14 1   
    27    13    32 1   
    28    13    33 1   
    29    14    15 ar  
    30    14    16 ar  
    31    15    18 ar  
    32    15    34 1   
    33    16    17 ar  
    34    16    35 1   
    35    17    19 ar  
    36    17    36 1   
    37    18    19 ar  
    38    18    37 1   
    39    19    20 1   
@<TRIPOS>SUBSTRUCTURE
     1 224         1 TEMP              0 ****  ****    0 ROOT
