@<TRIPOS>MOLECULE
224
   37    39     1     0     0
SMALL
No Charge or Current Charge


@<TRIPOS>ATOM
      1 C1          -2.1330     0.6090    -5.1930 cc         1 224      -0.224000
      2 N1          -1.5390    -0.4840    -4.5990 na         1 224      -0.163500
      3 C2          -3.4610     0.2870    -5.3110 cd         1 224       0.218900
      4 N2          -3.7020    -0.9750    -4.8090 nd         1 224      -0.677000
      5 C3          -2.5280    -1.4210    -4.3800 cc         1 224       0.393400
      6 C4          -0.1070    -0.6310    -4.2660 c3         1 224       0.061600
      7 C5           0.2430    -0.6700    -2.7500 c5         1 224       0.375000
      8 O1          -0.4930    -1.7230    -2.1010 os         1 224      -0.469500
      9 O2          -0.2560     0.5100    -2.0930 os         1 224      -0.469500
     10 C6          -0.3820     0.1770    -0.6910 c5         1 224       0.124600
     11 C7          -0.5810    -1.3700    -0.6980 c5         1 224       0.124600
     12 C8           1.7800    -0.8470    -2.5150 c3         1 224      -0.095400
     13 C9           2.6650     0.3520    -2.9350 c3         1 224      -0.028100
     14 C10          4.1340     0.1080    -2.6190 ca         1 224      -0.081300
     15 C11          4.6680     0.5040    -1.3770 ca         1 224      -0.099000
     16 C12          4.9670    -0.5250    -3.5630 ca         1 224      -0.099000
     17 C13          6.3230    -0.7560    -3.2680 ca         1 224      -0.101000
     18 C14          6.0240     0.2720    -1.0830 ca         1 224      -0.101000
     19 C15          6.8490    -0.3570    -2.0290 ca         1 224       0.120000
     20 Cl           8.5450    -0.6470    -1.6600 cl         1 224      -0.204000
     21 H1          -1.5950     1.5050    -5.4770 h4         1 224       0.160000
     22 H2          -4.2550     0.8940    -5.7310 h4         1 224       0.036100
     23 H3          -2.3300    -2.3850    -3.9260 h5         1 224       0.056100
     24 H41          0.2590    -1.5550    -4.7290 h1         1 224       0.075200
     25 H42          0.4340     0.2010    -4.7300 h1         1 224       0.075200
     26 H61         -1.2350     0.7140    -0.2550 h1         1 224       0.065200
     27 H62          0.5340     0.4660    -0.1590 h1         1 224       0.065200
     28 H71          0.2060    -1.8860    -0.1330 h1         1 224       0.065200
     29 H72         -1.5600    -1.6710    -0.3020 h1         1 224       0.065200
     30 H81          2.1200    -1.7330    -3.0660 hc         1 224       0.063200
     31 H82          1.9920    -1.0660    -1.4630 hc         1 224       0.063200
     32 H91          2.3180     1.2570    -2.4200 hc         1 224       0.054700
     33 H92          2.5450     0.5470    -4.0070 hc         1 224       0.054700
     34 H11          4.0340     0.9900    -0.6380 ha         1 224       0.116000
     35 H12          4.5650    -0.8390    -4.5240 ha         1 224       0.116000
     36 H13          6.9640    -1.2440    -3.9970 ha         1 224       0.130000
     37 H14          6.4340     0.5790    -0.1240 ha         1 224       0.130000
@<TRIPOS>BOND
     1     1     2 1   
     2     1     3 2   
     3     1    21 1   
     4     2     5 1   
     5     2     6 1   
     6     3     4 1   
     7     3    22 1   
     8     4     5 2   
     9     5    23 1   
    10     6     7 1   
    11     6    24 1   
    12     6    25 1   
    13     7     8 1   
    14     7     9 1   
    15     7    12 1   
    16     8    11 1   
    17     9    10 1   
    18    10    11 1   
    19    10    26 1   
    20    10    27 1   
    21    11    28 1   
    22    11    29 1   
    23    12    13 1   
    24    12    30 1   
    25    12    31 1   
    26    13    14 1   
    27    13    32 1   
    28    13    33 1   
    29    14    15 ar  
    30    14    16 ar  
    31    15    18 ar  
    32    15    34 1   
    33    16    17 ar  
    34    16    35 1   
    35    17    19 ar  
    36    17    36 1   
    37    18    19 ar  
    38    18    37 1   
    39    19    20 1   
@<TRIPOS>SUBSTRUCTURE
     1 224         1 TEMP              0 ****  ****    0 ROOT
