@<TRIPOS>MOLECULE
225
   44    45     1     0     0
SMALL
abcg2


@<TRIPOS>ATOM
      1 C15          5.2800    -2.4980    -0.6980 c3         1 225      -0.098100
      2 C14          4.3080    -1.3690    -0.9390 c3         1 225       0.169600
      3 O2           3.0270    -1.7860    -0.4520 os         1 225      -0.461100
      4 C13          2.0040    -0.9500    -0.5850 c          1 225       0.614300
      5 O1           2.1140     0.1320    -1.1240 o          1 225      -0.488000
      6 C2           0.7300    -1.4340    -0.0510 ce         1 225      -0.258400
      7 C1           0.5710    -2.5840     0.6510 c2         1 225       0.191800
      8 C12          1.6250    -3.5620     1.0790 c3         1 225      -0.061900
      9 N1          -0.6890    -2.9530     1.0400 nu         1 225      -0.691000
     10 C5          -1.8420    -2.3420     0.6330 c2         1 225       0.192800
     11 C18         -3.0840    -3.0860     1.0200 c3         1 225      -0.065900
     12 C4          -1.7680    -1.1810    -0.0640 ce         1 225      -0.262400
     13 C16         -2.9840    -0.5350    -0.5540 c          1 225       0.619300
     14 O3          -4.1200    -0.9520    -0.4530 o          1 225      -0.517000
     15 O4          -2.7060     0.6200    -1.1540 os         1 225      -0.429100
     16 C17         -3.7870     1.3800    -1.6760 c3         1 225       0.153900
     17 C3          -0.4350    -0.4940    -0.3020 c6         1 225       0.126000
     18 C6          -0.3100     0.7440     0.5810 ca         1 225      -0.049300
     19 C7          -0.3290     0.5660     1.9610 ca         1 225      -0.100000
     20 C8          -0.2250     1.6310     2.8380 ca         1 225      -0.111000
     21 C9          -0.0990     2.9200     2.3480 ca         1 225      -0.098000
     22 C10         -0.0800     3.1190     0.9780 ca         1 225       0.110000
     23 CL1          0.0710     4.7340     0.3820 cl         1 225      -0.186000
     24 C11         -0.1810     2.0440     0.0940 ca         1 225       0.159000
     25 CL2         -0.1490     2.3730    -1.5980 cl         1 225      -0.161000
     26 H151         6.2630    -2.2110    -1.0720 hc         1 225       0.044367
     27 H152         5.3790    -2.7250     0.3630 hc         1 225       0.044367
     28 H153         4.9760    -3.4060    -1.2200 hc         1 225       0.044367
     29 H141         4.6260    -0.4630    -0.4170 h1         1 225       0.050700
     30 H142         4.2420    -1.1350    -2.0040 h1         1 225       0.050700
     31 H121         2.4250    -3.0760     1.6320 hc         1 225       0.060367
     32 H122         1.1930    -4.3280     1.7210 hc         1 225       0.060367
     33 H123         2.0730    -4.0640     0.2230 hc         1 225       0.060367
     34 H181        -2.8340    -3.9440     1.6420 hc         1 225       0.064367
     35 H182        -3.7730    -2.4540     1.5750 hc         1 225       0.064367
     36 H183        -3.6130    -3.4510     0.1420 hc         1 225       0.064367
     37 H171        -3.3420     2.2840    -2.0830 h1         1 225       0.047033
     38 H172        -4.3080     0.8460    -2.4720 h1         1 225       0.047033
     39 H173        -4.5040     1.6490    -0.9000 h1         1 225       0.047033
     40 H7          -0.4310    -0.4360     2.3590 ha         1 225       0.113000
     41 H8          -0.2420     1.4630     3.9070 ha         1 225       0.116000
     42 H9          -0.0190     3.7640     3.0180 ha         1 225       0.128000
     43 H18         -0.7810    -3.8040     1.5710 hn         1 225       0.500000
     44 H19         -0.3860    -0.1760    -1.3430 hc         1 225       0.097700
@<TRIPOS>BOND
     1     1     2 1   
     2     1    26 1   
     3     1    27 1   
     4     1    28 1   
     5     2     3 1   
     6     2    29 1   
     7     2    30 1   
     8     3     4 1   
     9     4     5 2   
    10     4     6 1   
    11     6     7 2   
    12     6    17 1   
    13     7     8 1   
    14     7     9 1   
    15     8    31 1   
    16     8    32 1   
    17     8    33 1   
    18     9    10 1   
    19     9    43 1   
    20    10    11 1   
    21    10    12 2   
    22    11    34 1   
    23    11    35 1   
    24    11    36 1   
    25    12    13 1   
    26    12    17 1   
    27    13    14 2   
    28    13    15 1   
    29    15    16 1   
    30    16    37 1   
    31    16    38 1   
    32    16    39 1   
    33    17    18 1   
    34    17    44 1   
    35    18    19 ar  
    36    18    24 ar  
    37    19    20 ar  
    38    19    40 1   
    39    20    21 ar  
    40    20    41 1   
    41    21    22 ar  
    42    21    42 1   
    43    22    23 1   
    44    22    24 ar  
    45    24    25 1   
@<TRIPOS>SUBSTRUCTURE
     1 225         1 TEMP              0 ****  ****    0 ROOT
