@<TRIPOS>MOLECULE
225
   44    45     1     0     0
SMALL
No Charge or Current Charge


@<TRIPOS>ATOM
      1 C15          5.4020    -2.4450    -0.5030 c3         1 225      -0.098100
      2 C14          4.4010    -1.3490    -0.9020 c3         1 225       0.169600
      3 O2           3.1100    -1.7530    -0.4190 os         1 225      -0.461100
      4 C13          2.0410    -0.9310    -0.6490 c          1 225       0.614300
      5 O1           2.1420     0.1230    -1.2610 o          1 225      -0.488000
      6 C2           0.7330    -1.4570    -0.1040 ce         1 225      -0.258400
      7 C1           0.5800    -2.6320     0.5630 c2         1 225       0.191800
      8 C12          1.6260    -3.6660     0.9550 c3         1 225      -0.061900
      9 N1          -0.6990    -3.0030     0.9550 nu         1 225      -0.691000
     10 C5          -1.8920    -2.3780     0.6250 c2         1 225       0.192800
     11 C18         -3.1190    -3.1610     1.0620 c3         1 225      -0.065900
     12 C4          -1.8420    -1.1960    -0.0350 ce         1 225      -0.262400
     13 C16         -3.0880    -0.4660    -0.4780 c          1 225       0.619300
     14 O3          -4.2310    -0.8540    -0.2790 o          1 225      -0.517000
     15 O4          -2.8060     0.6870    -1.1610 os         1 225      -0.429100
     16 C17         -3.9020     1.4870    -1.6380 c3         1 225       0.153900
     17 C3          -0.4790    -0.5210    -0.3360 c6         1 225       0.126000
     18 C6          -0.3220     0.7350     0.5530 ca         1 225      -0.049300
     19 C7          -0.3290     0.5580     1.9550 ca         1 225      -0.100000
     20 C8          -0.1940     1.6530     2.8220 ca         1 225      -0.111000
     21 C9          -0.0490     2.9460     2.3000 ca         1 225      -0.098000
     22 C10         -0.0380     3.1450     0.9110 ca         1 225       0.110000
     23 Cl1          0.1470     4.7920     0.3010 cl         1 225      -0.186000
     24 C11         -0.1730     2.0490     0.0280 ca         1 225       0.159000
     25 Cl2         -0.1500     2.3630    -1.7180 cl         1 225      -0.161000
     26 H151         6.4080    -2.1840    -0.8500 hc         1 225       0.044367
     27 H152         5.4320    -2.5610     0.5860 hc         1 225       0.044367
     28 H153         5.1210    -3.4050    -0.9510 hc         1 225       0.044367
     29 H141         4.7070    -0.3930    -0.4550 h1         1 225       0.050700
     30 H142         4.3940    -1.2380    -1.9950 h1         1 225       0.050700
     31 H121         2.4030    -3.2190     1.5860 hc         1 225       0.060367
     32 H122         1.2050    -4.5050     1.5220 hc         1 225       0.060367
     33 H123         2.1080    -4.0930     0.0680 hc         1 225       0.060367
     34 H181        -2.8670    -4.0820     1.6010 hc         1 225       0.064367
     35 H182        -3.7480    -2.5610     1.7300 hc         1 225       0.064367
     36 H183        -3.7250    -3.4520     0.1960 hc         1 225       0.064367
     37 H171        -3.5260     2.3750    -2.1610 h1         1 225       0.047033
     38 H172        -4.5260     0.9180    -2.3400 h1         1 225       0.047033
     39 H173        -4.5320     1.8240    -0.8050 h1         1 225       0.047033
     40 H7          -0.4400    -0.4380     2.3760 ha         1 225       0.113000
     41 H8          -0.2020     1.4980     3.8990 ha         1 225       0.116000
     42 H9           0.0550     3.7950     2.9710 ha         1 225       0.128000
     43 H18         -0.7770    -3.8780     1.4730 hn         1 225       0.500000
     44 H19         -0.4740    -0.2560    -1.4010 hc         1 225       0.097700
@<TRIPOS>BOND
     1     1     2 1   
     2     1    26 1   
     3     1    27 1   
     4     1    28 1   
     5     2     3 1   
     6     2    29 1   
     7     2    30 1   
     8     3     4 1   
     9     4     5 2   
    10     4     6 1   
    11     6     7 2   
    12     6    17 1   
    13     7     8 1   
    14     7     9 1   
    15     8    31 1   
    16     8    32 1   
    17     8    33 1   
    18     9    10 1   
    19     9    43 1   
    20    10    11 1   
    21    10    12 2   
    22    11    34 1   
    23    11    35 1   
    24    11    36 1   
    25    12    13 1   
    26    12    17 1   
    27    13    14 2   
    28    13    15 1   
    29    15    16 1   
    30    16    37 1   
    31    16    38 1   
    32    16    39 1   
    33    17    18 1   
    34    17    44 1   
    35    18    19 ar  
    36    18    24 ar  
    37    19    20 ar  
    38    19    40 1   
    39    20    21 ar  
    40    20    41 1   
    41    21    22 ar  
    42    21    42 1   
    43    22    23 1   
    44    22    24 ar  
    45    24    25 1   
@<TRIPOS>SUBSTRUCTURE
     1 225         1 TEMP              0 ****  ****    0 ROOT
