@<TRIPOS>MOLECULE
226
   23    24     1     0     0
SMALL
No Charge or Current Charge


@<TRIPOS>ATOM
      1 OAB          4.2930    -1.8750    -1.0200 oh         1 226      -0.535100
      2 CAM          3.4660    -2.8690    -0.5620 ca         1 226       0.057100
      3 CAN          2.1290    -2.6080    -0.1710 ca         1 226       0.067000
      4 CAH          1.6070    -1.2990    -0.2430 ca         1 226      -0.166000
      5 CAI          0.2910    -1.0350     0.1420 ca         1 226       0.177100
      6 OAC         -0.1960     0.2320     0.0660 oh         1 226      -0.528100
      7 CAF         -0.5280    -2.0680     0.6030 ca         1 226      -0.302000
      8 CAK         -0.0310    -3.3750     0.6830 ca         1 226       0.197100
      9 OAE         -0.8780    -4.3430     1.1420 oh         1 226      -0.570100
     10 CAO          1.3050    -3.6670     0.2970 ca         1 226      -0.160000
     11 CAL          1.8530    -4.9750     0.3610 ca         1 226       0.198100
     12 OAA          1.1130    -6.0260     0.8000 oh         1 226      -0.540100
     13 CAG          3.1750    -5.2230    -0.0280 ca         1 226      -0.232000
     14 CAJ          3.9800    -4.1770    -0.4880 ca         1 226       0.098100
     15 OAD          5.2720    -4.4260    -0.8670 oh         1 226      -0.553100
     16 HOAB         5.1540    -2.3070    -1.2230 ho         1 226       0.476000
     17 HAH          2.2220    -0.4770    -0.5980 ha         1 226       0.152000
     18 HOAC        -1.1270     0.2190     0.3750 ho         1 226       0.465000
     19 HAF         -1.5520    -1.8540     0.9000 ha         1 226       0.115000
     20 HOAE        -1.7400    -3.9160     1.3460 ho         1 226       0.484000
     21 HOAA         0.2280    -5.6370     1.0190 ho         1 226       0.493000
     22 HAG          3.5670    -6.2360     0.0310 ha         1 226       0.131000
     23 HOAD         5.4550    -5.3840    -0.7490 ho         1 226       0.477000
@<TRIPOS>BOND
     1     1     2 1   
     2     1    16 1   
     3     2     3 ar  
     4     2    14 ar  
     5     3     4 ar  
     6     3    10 ar  
     7     4     5 ar  
     8     4    17 1   
     9     5     6 1   
    10     5     7 ar  
    11     6    18 1   
    12     7     8 ar  
    13     7    19 1   
    14     8     9 1   
    15     8    10 ar  
    16     9    20 1   
    17    10    11 ar  
    18    11    12 1   
    19    11    13 ar  
    20    12    21 1   
    21    13    14 ar  
    22    13    22 1   
    23    14    15 1   
    24    15    23 1   
@<TRIPOS>SUBSTRUCTURE
     1 226         1 TEMP              0 ****  ****    0 ROOT
