@<TRIPOS>MOLECULE
228
   55    59     1     0     0
SMALL
No Charge or Current Charge


@<TRIPOS>ATOM
      1 C28         -2.9860     2.8900    -1.4020 ca         1 228      -0.097000
      2 C27         -4.2260     3.2510    -1.9440 ca         1 228       0.052100
      3 O31         -4.9070     4.3940    -1.6750 os         1 228      -0.346100
      4 C30         -6.1320     4.2390    -2.4770 c5         1 228       0.373600
      5 O29         -6.0610     2.9840    -3.2440 os         1 228      -0.344100
      6 C26         -4.8820     2.4500    -2.8350 ca         1 228       0.050100
      7 C25         -4.3480     1.2250    -3.2530 ca         1 228      -0.094000
      8 C24         -3.1010     0.8300    -2.7230 ca         1 228      -0.103000
      9 C23         -2.4160     1.6580    -1.7970 ca         1 228      -0.079300
     10 C22         -1.0730     1.2190    -1.2320 c3         1 228      -0.055100
     11 C21         -1.2220     0.1090    -0.1710 c3         1 228       0.106000
     12 N20          0.0610    -0.2430     0.4400 ns         1 228      -0.503900
     13 C18          1.0510    -0.9840    -0.1820 c          1 228       0.596100
     14 O19          0.8860    -1.5150    -1.2760 o          1 228      -0.593100
     15 C17          2.3340    -1.0340     0.7470 c5         1 228       0.161500
     16 C16          2.8500    -2.4910     0.9370 c5         1 228      -0.084400
     17 C15          3.7840    -2.6830    -0.2890 c5         1 228      -0.093400
     18 C14          4.5540    -1.3390    -0.3280 c5         1 228       0.232800
     19 N13          3.4970    -0.3660     0.0560 nh         1 228      -0.764300
     20 C1           3.5810     1.0250    -0.1800 ca         1 228       0.427900
     21 N1           2.5250     1.7690     0.1940 nb         1 228      -0.301000
     22 C6           4.6990     1.6180    -0.7720 ca         1 228      -0.302000
     23 C5           4.6630     3.0010    -0.9660 ca         1 228       0.183300
     24 C12          5.8240     3.7450    -1.5970 c3         1 228      -0.151400
     25 N4           3.5960     3.7300    -0.5950 nb         1 228      -0.250000
     26 C3           2.5420     3.1040    -0.0200 ca         1 228       0.285500
     27 N7           1.4320     3.8570     0.3570 na         1 228      -0.186000
     28 C8           0.6410     3.6140     1.4560 cc         1 228      -0.201000
     29 C9          -0.3360     4.5760     1.3670 cd         1 228       0.225900
     30 NFE         -0.1500     5.3760     0.2480 nd         1 228      -0.675000
     31 C11          0.9380     4.9160    -0.3610 cc         1 228       0.435400
     32 H28         -2.4840     3.5450    -0.6950 ha         1 228       0.130000
     33 H301        -6.2260     5.0850    -3.1690 h2         1 228       0.063700
     34 H302        -7.0000     4.2040    -1.8080 h2         1 228       0.063700
     35 H25         -4.8810     0.5990    -3.9640 ha         1 228       0.134000
     36 H24         -2.6650    -0.1180    -3.0320 ha         1 228       0.126000
     37 H221        -0.5550     2.0730    -0.7820 hc         1 228       0.062700
     38 H222        -0.4260     0.8620    -2.0420 hc         1 228       0.062700
     39 H211        -1.9000     0.4540     0.6200 h1         1 228       0.055700
     40 H212        -1.6630    -0.7870    -0.6280 h1         1 228       0.055700
     41 HN20         0.2900     0.1630     1.3390 hn         1 228       0.313500
     42 H17          2.1060    -0.5740     1.7190 h1         1 228       0.078700
     43 H161         2.0390    -3.2270     0.9780 hc         1 228       0.060200
     44 H162         3.4150    -2.5810     1.8730 hc         1 228       0.060200
     45 H151         4.4570    -3.5410    -0.1780 hc         1 228       0.067200
     46 H152         3.2150    -2.8380    -1.2120 hc         1 228       0.067200
     47 H141         5.3810    -1.3280     0.3960 h1         1 228       0.053700
     48 H142         4.9620    -1.1510    -1.3300 h1         1 228       0.053700
     49 H6           5.5660     1.0400    -1.0710 ha         1 228       0.136000
     50 H121         6.5030     4.1290    -0.8270 hc         1 228       0.058033
     51 H122         6.4020     3.0910    -2.2600 hc         1 228       0.058033
     52 H123         5.4760     4.5970    -2.1940 hc         1 228       0.058033
     53 H8           0.8150     2.8280     2.1790 h4         1 228       0.165000
     54 H9          -1.1650     4.7370     2.0460 h4         1 228       0.037100
     55 H11          1.3880     5.2830    -1.2770 h5         1 228       0.074100
@<TRIPOS>BOND
     1     1     2 ar  
     2     1     9 ar  
     3     1    32 1   
     4     2     3 1   
     5     2     6 ar  
     6     3     4 1   
     7     4     5 1   
     8     4    33 1   
     9     4    34 1   
    10     5     6 1   
    11     6     7 ar  
    12     7     8 ar  
    13     7    35 1   
    14     8     9 ar  
    15     8    36 1   
    16     9    10 1   
    17    10    11 1   
    18    10    37 1   
    19    10    38 1   
    20    11    12 1   
    21    11    39 1   
    22    11    40 1   
    23    12    13 1   
    24    12    41 1   
    25    13    14 2   
    26    13    15 1   
    27    15    16 1   
    28    15    19 1   
    29    15    42 1   
    30    16    17 1   
    31    16    43 1   
    32    16    44 1   
    33    17    18 1   
    34    17    45 1   
    35    17    46 1   
    36    18    19 1   
    37    18    47 1   
    38    18    48 1   
    39    19    20 1   
    40    20    21 ar  
    41    20    22 ar  
    42    21    26 ar  
    43    22    23 ar  
    44    22    49 1   
    45    23    24 1   
    46    23    25 ar  
    47    24    50 1   
    48    24    51 1   
    49    24    52 1   
    50    25    26 ar  
    51    26    27 1   
    52    27    28 1   
    53    27    31 1   
    54    28    29 2   
    55    28    53 1   
    56    29    30 1   
    57    29    54 1   
    58    30    31 2   
    59    31    55 1   
@<TRIPOS>SUBSTRUCTURE
     1 228         1 TEMP              0 ****  ****    0 ROOT
