@<TRIPOS>MOLECULE
228
   55    59     1     0     0
SMALL
abcg2


@<TRIPOS>ATOM
      1 C28         -3.8920     2.2870    -0.9020 ca         1 228      -0.097000
      2 C27         -5.0660     2.4170    -1.6000 ca         1 228       0.052100
      3 O31         -6.2810     2.8130    -1.1450 os         1 228      -0.346100
      4 C30         -7.1910     2.5990    -2.2160 c5         1 228       0.373600
      5 O29         -6.4120     2.4040    -3.3890 os         1 228      -0.344100
      6 C26         -5.1460     2.1680    -2.9610 ca         1 228       0.050100
      7 C25         -4.0480     1.7790    -3.6860 ca         1 228      -0.094000
      8 C24         -2.8430     1.6430    -2.9840 ca         1 228      -0.103000
      9 C23         -2.7510     1.8900    -1.6200 ca         1 228      -0.079300
     10 C22         -1.4500     1.6850    -0.8950 c3         1 228      -0.055100
     11 C21         -1.3650     0.2770    -0.2980 c3         1 228       0.106000
     12 N20         -0.1260     0.0310     0.4030 ns         1 228      -0.503900
     13 C18          1.0110    -0.3120    -0.2200 c          1 228       0.596100
     14 O19          1.1010    -0.4570    -1.4290 o          1 228      -0.593100
     15 C17          2.1880    -0.5930     0.7110 c5         1 228       0.161500
     16 C16          2.3260    -2.0960     0.9920 c5         1 228      -0.084400
     17 C15          3.2480    -2.5920    -0.1170 c5         1 228      -0.093400
     18 C14          4.2210    -1.4360    -0.3170 c5         1 228       0.232800
     19 N13          3.4420    -0.2680     0.0660 nh         1 228      -0.764300
     20 C1           3.7820     0.9930    -0.2160 ca         1 228       0.427900
     21 N1           2.9090     1.9450     0.1350 nb         1 228      -0.301000
     22 C6           4.9960     1.3390    -0.8450 ca         1 228      -0.302000
     23 C5           5.2240     2.6750    -1.0840 ca         1 228       0.183300
     24 C12          6.4780     3.1520    -1.7400 c3         1 228      -0.151400
     25 N4           4.3380     3.6210    -0.7310 nb         1 228      -0.250000
     26 C3           3.2480     3.1820    -0.1430 ca         1 228       0.285500
     27 N7           2.3160     4.1590     0.2400 na         1 228      -0.186000
     28 C8           1.1160     3.9370     0.8730 cc         1 228      -0.201000
     29 C9           0.5660     5.1680     1.0420 cd         1 228       0.225900
     30 NFE          1.3930     6.1370     0.5300 nd         1 228      -0.675000
     31 C11          2.4280     5.5040     0.0600 cc         1 228       0.435400
     32 H28         -3.8410     2.4900     0.1600 ha         1 228       0.130000
     33 H301        -7.8300     3.4730    -2.3390 h2         1 228       0.063700
     34 H302        -7.7950     1.7070    -2.0170 h2         1 228       0.063700
     35 H25         -4.1020     1.5930    -4.7500 ha         1 228       0.134000
     36 H24         -1.9560     1.3370    -3.5250 ha         1 228       0.126000
     37 H221        -1.3430     2.4220    -0.0960 hc         1 228       0.062700
     38 H222        -0.6140     1.8310    -1.5820 hc         1 228       0.062700
     39 H211        -2.1800     0.1240     0.4100 h1         1 228       0.055700
     40 H212        -1.4830    -0.4650    -1.0890 h1         1 228       0.055700
     41 HN20        -0.1060     0.1930     1.3970 hn         1 228       0.313500
     42 H17          2.0720    -0.0270     1.6390 h1         1 228       0.078700
     43 H161         1.3650    -2.6080     1.0170 hc         1 228       0.060200
     44 H162         2.7930    -2.2330     1.9680 hc         1 228       0.060200
     45 H151         3.7610    -3.5160     0.1450 hc         1 228       0.067200
     46 H152         2.6850    -2.7720    -1.0340 hc         1 228       0.067200
     47 H141         5.1020    -1.5360     0.3240 h1         1 228       0.053700
     48 H142         4.5650    -1.3600    -1.3490 h1         1 228       0.053700
     49 H6           5.7260     0.5950    -1.1280 ha         1 228       0.136000
     50 H121         7.0590     3.7610    -1.0460 hc         1 228       0.058033
     51 H122         7.1000     2.3250    -2.0750 hc         1 228       0.058033
     52 H123         6.2410     3.7800    -2.5990 hc         1 228       0.058033
     53 H8           0.7820     2.9480     1.1320 h4         1 228       0.165000
     54 H9          -0.3790     5.4100     1.5020 h4         1 228       0.037100
     55 H11          3.2860     5.9480    -0.4180 h5         1 228       0.074100
@<TRIPOS>BOND
     1     1     2 ar  
     2     1     9 ar  
     3     1    32 1   
     4     2     3 1   
     5     2     6 ar  
     6     3     4 1   
     7     4     5 1   
     8     4    33 1   
     9     4    34 1   
    10     5     6 1   
    11     6     7 ar  
    12     7     8 ar  
    13     7    35 1   
    14     8     9 ar  
    15     8    36 1   
    16     9    10 1   
    17    10    11 1   
    18    10    37 1   
    19    10    38 1   
    20    11    12 1   
    21    11    39 1   
    22    11    40 1   
    23    12    13 1   
    24    12    41 1   
    25    13    14 2   
    26    13    15 1   
    27    15    16 1   
    28    15    19 1   
    29    15    42 1   
    30    16    17 1   
    31    16    43 1   
    32    16    44 1   
    33    17    18 1   
    34    17    45 1   
    35    17    46 1   
    36    18    19 1   
    37    18    47 1   
    38    18    48 1   
    39    19    20 1   
    40    20    21 ar  
    41    20    22 ar  
    42    21    26 ar  
    43    22    23 ar  
    44    22    49 1   
    45    23    24 1   
    46    23    25 ar  
    47    24    50 1   
    48    24    51 1   
    49    24    52 1   
    50    25    26 ar  
    51    26    27 1   
    52    27    28 1   
    53    27    31 1   
    54    28    29 2   
    55    28    53 1   
    56    29    30 1   
    57    29    54 1   
    58    30    31 2   
    59    31    55 1   
@<TRIPOS>SUBSTRUCTURE
     1 228         1 TEMP              0 ****  ****    0 ROOT
