@<TRIPOS>MOLECULE
229
   35    36     1     0     0
SMALL
No Charge or Current Charge


@<TRIPOS>ATOM
      1 O4           4.2020    -2.8670     1.8720 oh         1 229      -0.684000
      2 C11          2.7770    -2.7630     2.0770 c3         1 229       0.119600
      3 C6           2.0990    -4.1340     1.7960 c3         1 229       0.176300
      4 O3           2.7920    -5.1380     2.5580 oh         1 229      -0.674000
      5 C8           0.5580    -4.1680     2.0890 c3         1 229       0.180500
      6 C3           0.2000    -3.9920     3.5980 c3         1 229       0.158600
      7 O2          -1.2320    -4.0080     3.7890 oh         1 229      -0.677000
      8 N2          -0.1870    -3.1560     1.2910 n7         1 229      -0.868400
      9 C10         -0.3670    -3.4650    -0.1400 c3         1 229       0.241100
     10 C4          -1.2230    -2.4180    -0.8050 cc         1 229      -0.143300
     11 C1          -1.9380    -2.6390    -2.0000 cc         1 229       0.143400
     12 N4          -1.9850    -3.8010    -2.7370 nc         1 229      -0.568100
     13 C7          -2.7450    -3.7340    -3.8350 cd         1 229       0.467800
     14 N3          -3.4370    -2.6140    -4.2300 ns         1 229      -0.423400
     15 C9          -1.4540    -1.1150    -0.4220 cd         1 229      -0.143000
     16 N1          -2.3140    -0.5480    -1.3780 na         1 229      -0.071000
     17 C2          -2.6040    -1.5090    -2.3540 cd         1 229      -0.291600
     18 C5          -3.4360    -1.4340    -3.5560 c          1 229       0.597600
     19 O1          -4.0570    -0.4490    -3.9230 o          1 229      -0.557000
     20 HO4          4.5770    -1.9620     1.9760 ho         1 229       0.447000
     21 H111         2.5640    -2.4470     3.1070 h1         1 229       0.048200
     22 H112         2.3470    -2.0090     1.4040 h1         1 229       0.048200
     23 H6           2.2360    -4.3470     0.7280 h1         1 229       0.042700
     24 HO3          3.7270    -4.8230     2.5630 ho         1 229       0.462000
     25 H8           0.2030    -5.1700     1.8090 h1         1 229       0.045700
     26 H31          0.6120    -3.0420     3.9630 h1         1 229       0.038200
     27 H32          0.6670    -4.8000     4.1770 h1         1 229       0.038200
     28 HO2         -1.3940    -3.9050     4.7530 ho         1 229       0.446000
     29 HN2         -1.1260    -3.1190     1.7100 hn         1 229       0.430000
     30 H101        -0.8480    -4.4460    -0.2590 h1         1 229       0.038700
     31 H102         0.6020    -3.5040    -0.6550 h1         1 229       0.038700
     32 H7          -2.8720    -4.5750    -4.5060 h5         1 229       0.045800
     33 HN3         -3.9910    -2.6390    -5.0730 hn         1 229       0.328500
     34 H9          -1.0820    -0.5610     0.4330 h4         1 229       0.152000
     35 HN1         -2.6650     0.4060    -1.3640 hn         1 229       0.367000
@<TRIPOS>BOND
     1     1     2 1   
     2     1    20 1   
     3     2     3 1   
     4     2    21 1   
     5     2    22 1   
     6     3     4 1   
     7     3     5 1   
     8     3    23 1   
     9     4    24 1   
    10     5     6 1   
    11     5     8 1   
    12     5    25 1   
    13     6     7 1   
    14     6    26 1   
    15     6    27 1   
    16     7    28 1   
    17     8     9 1   
    18     8    29 1   
    19     9    10 1   
    20     9    30 1   
    21     9    31 1   
    22    10    11 1   
    23    10    15 2   
    24    11    12 1   
    25    11    17 2   
    26    12    13 2   
    27    13    14 1   
    28    13    32 1   
    29    14    18 1   
    30    14    33 1   
    31    15    16 1   
    32    15    34 1   
    33    16    17 1   
    34    16    35 1   
    35    17    18 1   
    36    18    19 2   
@<TRIPOS>SUBSTRUCTURE
     1 229         1 TEMP              0 ****  ****    0 ROOT
