@<TRIPOS>MOLECULE
229
   35    36     1     0     0
SMALL
bcc


@<TRIPOS>ATOM
      1 O4           3.3490    -4.3430     0.1110 oh         1 229      -0.621800
      2 C11          2.3390    -3.5540     0.7140 c3         1 229       0.096400
      3 C6           1.5810    -4.4620     1.6690 c3         1 229       0.153100
      4 O3           2.4380    -5.0110     2.6490 oh         1 229      -0.611800
      5 C8           0.4310    -3.7560     2.4010 c3         1 229       0.180500
      6 C3           0.9320    -2.7020     3.3820 c3         1 229       0.135400
      7 O2          -0.1840    -2.1980     4.0880 oh         1 229      -0.614800
      8 N2          -0.4600    -3.1180     1.4480 n7         1 229      -0.813200
      9 C10         -1.2540    -4.0320     0.6390 c3         1 229       0.241100
     10 C4          -2.1120    -3.2710    -0.3120 cc         1 229      -0.143300
     11 C1          -1.6840    -2.5990    -1.4840 cc         1 229       0.143400
     12 N4          -0.4350    -2.5280    -2.0350 nc         1 229      -0.568100
     13 C7          -0.3690    -1.8520    -3.1280 cd         1 229       0.467800
     14 N3          -1.4240    -1.2360    -3.7280 ns         1 229      -0.490400
     15 C9          -3.4660    -3.0370    -0.2220 cd         1 229      -0.110300
     16 N1          -3.8750    -2.2730    -1.2650 na         1 229      -0.122100
     17 C2          -2.8020    -1.9950    -2.0510 cd         1 229      -0.240900
     18 C5          -2.7310    -1.2440    -3.2600 c          1 229       0.740100
     19 O1          -3.6390    -0.6710    -3.8460 o          1 229      -0.632500
     20 HO4          3.9220    -3.7650    -0.4000 ho         1 229       0.408000
     21 H111         2.7750    -2.7100     1.2620 h1         1 229       0.048200
     22 H112         1.6450    -3.1450    -0.0280 h1         1 229       0.048200
     23 H6           1.1500    -5.2770     1.0680 h1         1 229       0.042700
     24 HO3          3.1910    -5.3980     2.1910 ho         1 229       0.423000
     25 H8          -0.0890    -4.5330     2.9920 h1         1 229       0.045700
     26 H31          1.4440    -1.9030     2.8330 h1         1 229       0.038200
     27 H32          1.6600    -3.1520     4.0640 h1         1 229       0.038200
     28 HO2          0.0940    -1.4130     4.5670 ho         1 229       0.407000
     29 HN2         -1.0990    -2.5220     1.9600 hn         1 229       0.374800
     30 H101        -1.8780    -4.7040     1.2480 h1         1 229       0.038700
     31 H102        -0.5820    -4.6740     0.0650 h1         1 229       0.038700
     32 H7           0.5760    -1.7390    -3.6430 h5         1 229       0.045800
     33 HN3         -1.2470    -0.7340    -4.5880 hn         1 229       0.328500
     34 H9          -4.1680    -3.3710     0.5250 h4         1 229       0.170000
     35 HN1         -4.8210    -1.9710    -1.4300 hn         1 229       0.316700
@<TRIPOS>BOND
     1     1     2 1   
     2     1    20 1   
     3     2     3 1   
     4     2    21 1   
     5     2    22 1   
     6     3     4 1   
     7     3     5 1   
     8     3    23 1   
     9     4    24 1   
    10     5     6 1   
    11     5     8 1   
    12     5    25 1   
    13     6     7 1   
    14     6    26 1   
    15     6    27 1   
    16     7    28 1   
    17     8     9 1   
    18     8    29 1   
    19     9    10 1   
    20     9    30 1   
    21     9    31 1   
    22    10    11 1   
    23    10    15 2   
    24    11    12 1   
    25    11    17 2   
    26    12    13 2   
    27    13    14 1   
    28    13    32 1   
    29    14    18 1   
    30    14    33 1   
    31    15    16 1   
    32    15    34 1   
    33    16    17 1   
    34    16    35 1   
    35    17    18 1   
    36    18    19 2   
@<TRIPOS>SUBSTRUCTURE
     1 229         1 TEMP              0 ****  ****    0 ROOT
