@<TRIPOS>MOLECULE
22A
   31    32     1     0     0
SMALL
No Charge or Current Charge


@<TRIPOS>ATOM
      1 N1           3.9620     1.4480     0.3360 ns         1 22A      -0.424400
      2 C2           2.8740     1.9660     0.9950 cc         1 22A       0.467800
      3 N3           1.6760     1.3780     1.0700 nd         1 22A      -0.556100
      4 C4           1.5900     0.1550     0.4090 cd         1 22A       0.150400
      5 C5           2.6590    -0.3810    -0.2480 cc         1 22A      -0.292600
      6 C6           3.9600     0.2680    -0.3230 c          1 22A       0.596600
      7 O6           4.9390    -0.1760    -0.9000 o          1 22A      -0.561000
      8 N7           2.2060    -1.5960    -0.7710 na         1 22A      -0.072000
      9 C8           0.8630    -1.7990    -0.4260 cc         1 22A      -0.151000
     10 C9           0.4720    -0.7000     0.3070 cd         1 22A      -0.141300
     11 N2          -1.9630    -0.6430    -0.0740 n7         1 22A      -0.823400
     12 C10         -0.8870    -0.4560     0.9160 c3         1 22A       0.239100
     13 C7          -3.3610    -0.5240     0.4470 c3         1 22A       0.183500
     14 C3          -3.7430     0.9350     0.8850 c3         1 22A       0.173600
     15 C11         -4.4070    -1.1780    -0.5210 c3         1 22A       0.173600
     16 O5          -4.3210    -0.6900    -1.8730 oh         1 22A      -0.617500
     17 O1          -3.6090     1.9050    -0.1710 oh         1 22A      -0.617500
     18 HN1          4.8300     1.9640     0.3330 hn         1 22A       0.328500
     19 H2           3.0850     2.9210     1.4610 h5         1 22A       0.047800
     20 H8           0.3150    -2.6850    -0.7220 h4         1 22A       0.147000
     21 H5          -1.8550    -1.5810    -0.4680 hn         1 22A       0.409000
     22 H10         -1.0150    -1.1540     1.7550 h1         1 22A       0.033200
     23 H10A        -0.9180     0.5620     1.3280 h1         1 22A       0.033200
     24 H6          -3.4210    -1.1270     1.3640 h1         1 22A       0.009700
     25 H3          -4.7760     0.9300     1.2550 h1         1 22A       0.008700
     26 H3'A        -3.1060     1.2260     1.7310 h1         1 22A       0.008700
     27 H4          -4.2430    -2.2640    -0.5190 h1         1 22A       0.008700
     28 H4'A        -5.4150    -1.0070    -0.1230 h1         1 22A       0.008700
     29 HO5         -5.0090    -1.1610    -2.3900 ho         1 22A       0.430000
     30 HO6         -3.8140     2.7810     0.2210 ho         1 22A       0.430000
     31 H14          2.7700    -2.2420    -1.3180 hn         1 22A       0.366000
@<TRIPOS>BOND
     1     1     2 1   
     2     1     6 1   
     3     1    18 1   
     4     2     3 2   
     5     2    19 1   
     6     3     4 1   
     7     4     5 2   
     8     4    10 1   
     9     5     6 1   
    10     5     8 1   
    11     6     7 2   
    12     8     9 1   
    13     8    31 1   
    14     9    10 2   
    15     9    20 1   
    16    10    12 1   
    17    11    12 1   
    18    11    13 1   
    19    11    21 1   
    20    12    22 1   
    21    12    23 1   
    22    13    14 1   
    23    13    15 1   
    24    13    24 1   
    25    14    17 1   
    26    14    25 1   
    27    14    26 1   
    28    15    16 1   
    29    15    27 1   
    30    15    28 1   
    31    16    29 1   
    32    17    30 1   
@<TRIPOS>SUBSTRUCTURE
     1 22A         1 TEMP              0 ****  ****    0 ROOT
