@<TRIPOS>MOLECULE
22A
   31    32     1     0     0
SMALL
abcg2


@<TRIPOS>ATOM
      1 N1           3.4340     1.6020    -0.2530 ns         1 22A      -0.424400
      2 C2           2.2460     2.1120     0.1750 cc         1 22A       0.467800
      3 N3           1.2100     1.4130     0.4760 nd         1 22A      -0.556100
      4 C4           1.3720     0.0630     0.3390 cd         1 22A       0.150400
      5 C5           2.5620    -0.5190    -0.0870 cc         1 22A      -0.292600
      6 C6           3.7110     0.2530    -0.4240 c          1 22A       0.596600
      7 O6           4.8020    -0.1470    -0.8070 o          1 22A      -0.561000
      8 N7           2.3930    -1.8670    -0.0950 na         1 22A      -0.072000
      9 C8           1.1330    -2.1510     0.3180 cc         1 22A      -0.151000
     10 C9           0.4550    -0.9860     0.6030 cd         1 22A      -0.141300
     11 N2          -1.8430    -0.5210    -0.0430 n7         1 22A      -0.823400
     12 C10         -0.9580    -0.8600     1.0590 c3         1 22A       0.239100
     13 C7          -3.2450    -0.4840     0.3400 c3         1 22A       0.183500
     14 C3          -3.5920     0.7660     1.1380 c3         1 22A       0.173600
     15 C11         -4.1450    -0.7180    -0.8640 c3         1 22A       0.173600
     16 O5          -3.8970     0.2130    -1.8890 oh         1 22A      -0.617500
     17 O1          -3.3530     1.9380     0.4020 oh         1 22A      -0.617500
     18 HN1          4.1780     2.2550    -0.4610 hn         1 22A       0.328500
     19 H2           2.2170     3.1910     0.2530 h5         1 22A       0.047800
     20 H8           0.7940    -3.1720     0.3900 h4         1 22A       0.147000
     21 H5          -1.7170    -1.2180    -0.7680 hn         1 22A       0.409000
     22 H10         -1.2600    -1.7930     1.5640 h1         1 22A       0.033200
     23 H10A        -1.0170    -0.0730     1.8140 h1         1 22A       0.033200
     24 H6          -3.4920    -1.3170     1.0260 h1         1 22A       0.009700
     25 H3          -4.6460     0.6780     1.4380 h1         1 22A       0.008700
     26 H3'A        -3.0110     0.7590     2.0710 h1         1 22A       0.008700
     27 H4          -3.9710    -1.7450    -1.2170 h1         1 22A       0.008700
     28 H4'A        -5.1870    -0.6810    -0.5180 h1         1 22A       0.008700
     29 HO5         -4.4200    -0.0520    -2.6510 ho         1 22A       0.430000
     30 HO6         -3.5040     2.6830     0.9900 ho         1 22A       0.430000
     31 H14          3.0890    -2.5480    -0.3520 hn         1 22A       0.366000
@<TRIPOS>BOND
     1     1     2 1   
     2     1     6 1   
     3     1    18 1   
     4     2     3 2   
     5     2    19 1   
     6     3     4 1   
     7     4     5 2   
     8     4    10 1   
     9     5     6 1   
    10     5     8 1   
    11     6     7 2   
    12     8     9 1   
    13     8    31 1   
    14     9    10 2   
    15     9    20 1   
    16    10    12 1   
    17    11    12 1   
    18    11    13 1   
    19    11    21 1   
    20    12    22 1   
    21    12    23 1   
    22    13    14 1   
    23    13    15 1   
    24    13    24 1   
    25    14    17 1   
    26    14    25 1   
    27    14    26 1   
    28    15    16 1   
    29    15    27 1   
    30    15    28 1   
    31    16    29 1   
    32    17    30 1   
@<TRIPOS>SUBSTRUCTURE
     1 22A         1 TEMP              0 ****  ****    0 ROOT
