@<TRIPOS>MOLECULE
22B
  130   129     1     0     0
SMALL
abcg2


@<TRIPOS>ATOM
      1 C1          -8.6870   -14.4790    22.4430 c3         1 22B       0.192500
      2 C2          -7.3830   -15.2880    22.1900 c3         1 22B      -0.059000
      3 C3          -7.0820   -15.4030    20.7270 c2         1 22B      -0.188200
      4 C4          -6.0270   -14.8370    20.1290 ce         1 22B      -0.195000
      5 C5          -5.6700   -14.9700    18.7240 ce         1 22B      -0.056200
      6 C6          -4.5960   -14.2820    18.2670 cf         1 22B      -0.184500
      7 C7          -4.0540   -14.2930    16.9360 cf         1 22B      -0.168000
      8 C8          -2.9980   -13.5300    16.5760 ce         1 22B      -0.177500
      9 C9          -2.3770   -13.5010    15.2710 ce         1 22B      -0.061700
     10 C10         -1.3390   -12.6440    15.0810 cf         1 22B      -0.178000
     11 C11         -0.5660   -12.4600    13.8870 cf         1 22B      -0.170000
     12 C12          0.4350   -11.5510    13.8100 ce         1 22B      -0.175000
     13 C13          1.2750   -11.3130    12.6620 ce         1 22B      -0.062700
     14 C14          2.2250   -10.3430    12.7610 cf         1 22B      -0.177000
     15 C15          3.1760    -9.9510    11.7660 cf         1 22B      -0.170500
     16 C16         -8.5690   -13.0970    21.8130 c3         1 22B      -0.101850
     17 C17         -8.9470   -14.3180    23.9410 c3         1 22B      -0.101850
     18 C18         -6.5120   -15.8680    17.8700 c3         1 22B      -0.056900
     19 C19         -2.9120   -14.4130    14.2080 c3         1 22B      -0.055900
     20 C20          1.0600   -12.1440    11.4340 c3         1 22B      -0.055900
     21 C21         -7.4120   -16.6930    22.8140 c3         1 22B      -0.064400
     22 C22         -6.0850   -17.4220    22.6450 c3         1 22B      -0.105400
     23 C23         -5.9720   -18.7670    23.3770 c3         1 22B       0.183500
     24 C24         -7.0540   -19.7380    22.9230 c3         1 22B      -0.100100
     25 C25         -4.5910   -19.3630    23.1020 c3         1 22B      -0.100100
     26 O26         -9.7980   -15.1030    21.8140 oh         1 22B      -0.657500
     27 O27         -6.1560   -18.5960    24.7780 oh         1 22B      -0.661000
     28 C38         10.4400    -5.5830     7.2500 ce         1 22B      -0.177500
     29 C39          9.7300    -5.5170     8.5070 ce         1 22B      -0.061700
     30 C40          8.6870    -6.3670     8.6920 cf         1 22B      -0.178000
     31 C41          7.8560    -6.4910     9.8540 cf         1 22B      -0.170000
     32 C42          6.8570    -7.4010     9.9340 ce         1 22B      -0.175000
     33 C43          5.9830    -7.6020    11.0640 ce         1 22B      -0.062700
     34 C44          5.0390    -8.5780    10.9710 ce         1 22B      -0.177000
     35 C45          4.0790    -8.9580    11.9620 ce         1 22B      -0.170500
     36 C50          6.1630    -6.7300    12.2700 c3         1 22B      -0.055900
     37 C26         10.1880    -4.5260     9.5350 c3         1 22B      -0.055900
     38 C27         11.5310    -4.8600     6.9130 cf         1 22B      -0.168000
     39 C28         12.1800    -4.9980     5.6370 cf         1 22B      -0.184500
     40 C29         13.3080    -4.3790     5.2150 ce         1 22B      -0.056200
     41 C30         14.0940    -3.4150     6.0510 c3         1 22B      -0.056900
     42 C31         13.7990    -4.6820     3.8790 ce         1 22B      -0.195000
     43 C32         14.9350    -4.2300     3.3360 c2         1 22B      -0.188200
     44 C33         15.4180    -4.6170     1.9720 c3         1 22B      -0.059000
     45 C34         16.6350    -5.5510     2.0810 c3         1 22B      -0.064400
     46 C35         16.2620    -6.9230     2.6290 c3         1 22B      -0.105400
     47 C36         17.3890    -7.9660     2.6510 c3         1 22B       0.183500
     48 C37         17.8460    -8.3240     1.2420 c3         1 22B      -0.100100
     49 C46         18.5730    -7.4830     3.4870 c3         1 22B      -0.100100
     50 O1          16.8770    -9.1770     3.2020 oh         1 22B      -0.661000
     51 C47         15.6800    -3.3700     1.0840 c3         1 22B       0.192500
     52 C48         15.8130    -3.7860    -0.3820 c3         1 22B      -0.101850
     53 C49         16.9190    -2.5980     1.5190 c3         1 22B      -0.101850
     54 O2          14.5930    -2.4650     1.2160 oh         1 22B      -0.657500
     55 H501         6.0320    -5.6770    12.0110 hc         1 22B       0.042700
     56 H502         5.4620    -6.9620    13.0670 hc         1 22B       0.042700
     57 H503         7.1710    -6.8320    12.6780 hc         1 22B       0.042700
     58 H44          5.0040    -9.1440    10.0440 ha         1 22B       0.169000
     59 H45          4.0690    -8.4360    12.9130 ha         1 22B       0.172000
     60 H15          3.1850   -10.4710    10.8130 ha         1 22B       0.172000
     61 H14          2.2800    -9.8000    13.7020 ha         1 22B       0.169000
     62 H201         1.7400   -11.8890    10.6250 hc         1 22B       0.042700
     63 H202         1.1920   -13.2060    11.6540 hc         1 22B       0.042700
     64 H203         0.0430   -12.0240    11.0560 hc         1 22B       0.042700
     65 H12          0.6390   -10.9400    14.6850 ha         1 22B       0.170000
     66 H11         -0.7920   -13.0750    13.0240 ha         1 22B       0.174000
     67 H10         -1.0500   -12.0240    15.9260 ha         1 22B       0.169000
     68 H191        -3.9640   -14.1990    14.0070 hc         1 22B       0.042533
     69 H192        -2.3760   -14.3300    13.2670 hc         1 22B       0.042533
     70 H193        -2.8590   -15.4560    14.5270 hc         1 22B       0.042533
     71 H8          -2.5610   -12.8750    17.3260 ha         1 22B       0.169000
     72 H7          -4.5100   -14.9450    16.2000 ha         1 22B       0.173500
     73 H6          -4.0740   -13.6470    18.9790 ha         1 22B       0.168000
     74 H181        -6.1610   -15.9340    16.8430 hc         1 22B       0.043033
     75 H182        -6.5370   -16.8810    18.2780 hc         1 22B       0.043033
     76 H183        -7.5460   -15.5170    17.8410 hc         1 22B       0.043033
     77 H4          -5.3590   -14.2270    20.7320 ha         1 22B       0.166000
     78 H3          -7.7660   -16.0180    20.1490 ha         1 22B       0.178000
     79 H2          -6.5710   -14.7250    22.6670 hc         1 22B       0.049200
     80 H211        -8.2130   -17.2790    22.3520 hc         1 22B       0.045700
     81 H212        -7.6460   -16.6230    23.8780 hc         1 22B       0.045700
     82 H221        -5.2740   -16.7700    22.9960 hc         1 22B       0.046200
     83 H222        -5.8850   -17.5920    21.5830 hc         1 22B       0.046200
     84 H241        -6.9110   -20.7220    23.3730 hc         1 22B       0.041283
     85 H242        -8.0510   -19.3900    23.1930 hc         1 22B       0.041283
     86 H243        -7.0230   -19.8610    21.8400 hc         1 22B       0.041283
     87 H251        -3.7970   -18.6860    23.4270 hc         1 22B       0.041283
     88 H252        -4.4600   -20.3120    23.6250 hc         1 22B       0.041283
     89 H253        -4.4470   -19.5440    22.0350 hc         1 22B       0.041283
     90 H27         -5.4920   -17.9730    25.0910 ho         1 22B       0.438500
     91 H161        -8.4320   -13.1540    20.7330 hc         1 22B       0.042533
     92 H162        -9.4610   -12.5020    22.0160 hc         1 22B       0.042533
     93 H163        -7.7110   -12.5640    22.2260 hc         1 22B       0.042533
     94 H171        -9.7900   -13.6460    24.1090 hc         1 22B       0.042533
     95 H172        -9.1800   -15.2660    24.4300 hc         1 22B       0.042533
     96 H173        -8.0780   -13.8940    24.4470 hc         1 22B       0.042533
     97 H26        -10.0020   -15.9180    22.2840 ho         1 22B       0.440500
     98 H42          6.6890    -8.0530     9.0800 ha         1 22B       0.170000
     99 H41          8.0430    -5.8340    10.6950 ha         1 22B       0.174000
    100 H40          8.4510    -7.0450     7.8740 ha         1 22B       0.169000
    101 H261        11.2070    -4.7440     9.8640 hc         1 22B       0.042533
    102 H262         9.5550    -4.5090    10.4180 hc         1 22B       0.042533
    103 H263        10.1990    -3.5140     9.1240 hc         1 22B       0.042533
    104 H38         10.0520    -6.2920     6.5220 ha         1 22B       0.169000
    105 H1          11.9440    -4.1570     7.6280 ha         1 22B       0.173500
    106 H28         11.7050    -5.6900     4.9460 ha         1 22B       0.168000
    107 H301        15.0880    -3.8120     6.2700 hc         1 22B       0.043033
    108 H302        13.6160    -3.1870     7.0000 hc         1 22B       0.043033
    109 H303        14.2420    -2.4720     5.5220 hc         1 22B       0.043033
    110 H31         13.1780    -5.3500     3.2850 ha         1 22B       0.166000
    111 H32         15.5860    -3.5790     3.9140 ha         1 22B       0.178000
    112 H33         14.6170    -5.1880     1.4820 hc         1 22B       0.049200
    113 H341        17.0870    -5.6630     1.0930 hc         1 22B       0.045700
    114 H342        17.3950    -5.0860     2.7150 hc         1 22B       0.045700
    115 H351        15.8840    -6.8060     3.6510 hc         1 22B       0.046200
    116 H352        15.4310    -7.3270     2.0390 hc         1 22B       0.046200
    117 H371        17.0080    -8.6700     0.6330 hc         1 22B       0.041283
    118 H372        18.5990    -9.1130     1.2680 hc         1 22B       0.041283
    119 H373        18.2880    -7.4640     0.7410 hc         1 22B       0.041283
    120 H461        19.3370    -8.2590     3.5560 hc         1 22B       0.041283
    121 H462        18.2590    -7.2260     4.5020 hc         1 22B       0.041283
    122 H463        19.0420    -6.5980     3.0560 hc         1 22B       0.041283
    123 HO1         16.5620    -8.9880     4.0930 ho         1 22B       0.438500
    124 H481        16.6530    -4.4600    -0.5470 hc         1 22B       0.042533
    125 H482        15.9670    -2.9090    -1.0130 hc         1 22B       0.042533
    126 H483        14.9090    -4.2960    -0.7250 hc         1 22B       0.042533
    127 H491        17.0530    -1.7130     0.8930 hc         1 22B       0.042533
    128 H492        16.8540    -2.2650     2.5560 hc         1 22B       0.042533
    129 H493        17.8170    -3.2080     1.4190 hc         1 22B       0.042533
    130 HO2         13.7770    -2.9420     1.0310 ho         1 22B       0.440500
@<TRIPOS>BOND
     1     1     2 1   
     2     1    16 1   
     3     1    17 1   
     4     1    26 1   
     5     2     3 1   
     6     2    21 1   
     7     2    79 1   
     8     3     4 2   
     9     3    78 1   
    10     4     5 1   
    11     4    77 1   
    12     5     6 2   
    13     5    18 1   
    14     6     7 1   
    15     6    73 1   
    16     7     8 2   
    17     7    72 1   
    18     8     9 1   
    19     8    71 1   
    20     9    10 2   
    21     9    19 1   
    22    10    11 1   
    23    10    67 1   
    24    11    12 2   
    25    11    66 1   
    26    12    13 1   
    27    12    65 1   
    28    13    14 2   
    29    13    20 1   
    30    14    15 1   
    31    14    61 1   
    32    15    35 2   
    33    15    60 1   
    34    16    91 1   
    35    16    92 1   
    36    16    93 1   
    37    17    94 1   
    38    17    95 1   
    39    17    96 1   
    40    18    74 1   
    41    18    75 1   
    42    18    76 1   
    43    19    68 1   
    44    19    69 1   
    45    19    70 1   
    46    20    62 1   
    47    20    63 1   
    48    20    64 1   
    49    21    22 1   
    50    21    80 1   
    51    21    81 1   
    52    22    23 1   
    53    22    82 1   
    54    22    83 1   
    55    23    24 1   
    56    23    25 1   
    57    23    27 1   
    58    24    84 1   
    59    24    85 1   
    60    24    86 1   
    61    25    87 1   
    62    25    88 1   
    63    25    89 1   
    64    26    97 1   
    65    27    90 1   
    66    28    29 1   
    67    28    38 2   
    68    28   104 1   
    69    29    30 2   
    70    29    37 1   
    71    30    31 1   
    72    30   100 1   
    73    31    32 2   
    74    31    99 1   
    75    32    33 1   
    76    32    98 1   
    77    33    34 2   
    78    33    36 1   
    79    34    35 1   
    80    34    58 1   
    81    35    59 1   
    82    36    55 1   
    83    36    56 1   
    84    36    57 1   
    85    37   101 1   
    86    37   102 1   
    87    37   103 1   
    88    38    39 1   
    89    38   105 1   
    90    39    40 2   
    91    39   106 1   
    92    40    41 1   
    93    40    42 1   
    94    41   107 1   
    95    41   108 1   
    96    41   109 1   
    97    42    43 2   
    98    42   110 1   
    99    43    44 1   
   100    43   111 1   
   101    44    45 1   
   102    44    51 1   
   103    44   112 1   
   104    45    46 1   
   105    45   113 1   
   106    45   114 1   
   107    46    47 1   
   108    46   115 1   
   109    46   116 1   
   110    47    48 1   
   111    47    49 1   
   112    47    50 1   
   113    48   117 1   
   114    48   118 1   
   115    48   119 1   
   116    49   120 1   
   117    49   121 1   
   118    49   122 1   
   119    50   123 1   
   120    51    52 1   
   121    51    53 1   
   122    51    54 1   
   123    52   124 1   
   124    52   125 1   
   125    52   126 1   
   126    53   127 1   
   127    53   128 1   
   128    53   129 1   
   129    54   130 1   
@<TRIPOS>SUBSTRUCTURE
     1 22B         1 TEMP              0 ****  ****    0 ROOT
