@<TRIPOS>MOLECULE
22B
  130   129     1     0     0
SMALL
No Charge or Current Charge


@<TRIPOS>ATOM
      1 C1          -8.7840   -14.2560    22.9920 c3         1 22B       0.192500
      2 C2          -7.6320   -15.2740    22.6490 c3         1 22B      -0.059000
      3 C3          -7.3190   -15.2980    21.1580 c2         1 22B      -0.188200
      4 C4          -6.1150   -15.0150    20.6050 ce         1 22B      -0.195000
      5 C5          -5.7950   -15.0290    19.1640 ce         1 22B      -0.056200
      6 C6          -4.6350   -14.4580    18.7210 cf         1 22B      -0.184500
      7 C7          -4.1550   -14.3800    17.3420 cf         1 22B      -0.168000
      8 C8          -2.9530   -13.8440    16.9860 ce         1 22B      -0.177500
      9 C9          -2.4010   -13.7120    15.6220 ce         1 22B      -0.061700
     10 C10         -1.3050   -12.9260    15.4060 cf         1 22B      -0.178000
     11 C11         -0.6270   -12.6790    14.1340 cf         1 22B      -0.170000
     12 C12          0.5030   -11.9250    14.0090 ce         1 22B      -0.175000
     13 C13          1.2380   -11.6160    12.7660 ce         1 22B      -0.062700
     14 C14          2.2010   -10.6460    12.7690 cf         1 22B      -0.177000
     15 C15          3.0240   -10.2080    11.6440 cf         1 22B      -0.170500
     16 C16         -8.4630   -12.8450    22.4330 c3         1 22B      -0.101850
     17 C17         -9.0430   -14.1460    24.5170 c3         1 22B      -0.101850
     18 C18         -6.7650   -15.7610    18.2390 c3         1 22B      -0.056900
     19 C19         -3.0600   -14.5360    14.5180 c3         1 22B      -0.055900
     20 C20          0.9210   -12.4640    11.5370 c3         1 22B      -0.055900
     21 C21         -7.8680   -16.7270    23.1680 c3         1 22B      -0.064400
     22 C22         -6.6750   -17.6900    22.8970 c3         1 22B      -0.105400
     23 C23         -6.7960   -19.1210    23.5000 c3         1 22B       0.183500
     24 C24         -8.0520   -19.8700    22.9910 c3         1 22B      -0.100100
     25 C25         -5.5250   -19.9420    23.1780 c3         1 22B      -0.100100
     26 O26        -10.0010   -14.6880    22.3780 oh         1 22B      -0.657500
     27 O27         -6.8910   -19.0190    24.9210 oh         1 22B      -0.661000
     28 C38         10.4550    -5.6850     6.7950 ce         1 22B      -0.177500
     29 C39          9.7240    -5.7180     8.0780 ce         1 22B      -0.061700
     30 C40          8.6670    -6.5690     8.2360 cf         1 22B      -0.178000
     31 C41          7.8340    -6.7370     9.4250 cf         1 22B      -0.170000
     32 C42          6.7550    -7.5680     9.4860 ce         1 22B      -0.175000
     33 C43          5.8820    -7.8000    10.6500 ce         1 22B      -0.062700
     34 C44          4.8350    -8.8340    10.6030 ce         1 22B      -0.177000
     35 C45          4.0070    -9.2740    11.7350 ce         1 22B      -0.170500
     36 C50          5.9140    -6.8240    11.8220 c3         1 22B      -0.055900
     37 C26         10.1590    -4.7280     9.1570 c3         1 22B      -0.055900
     38 C27         11.6540    -5.0860     6.5430 cf         1 22B      -0.168000
     39 C28         12.3200    -5.1130     5.2420 cf         1 22B      -0.184500
     40 C29         13.4870    -4.4940     4.8940 ce         1 22B      -0.056200
     41 C30         14.2590    -3.5870     5.8490 c3         1 22B      -0.056900
     42 C31         14.0110    -4.6350     3.5210 ce         1 22B      -0.195000
     43 C32         15.2570    -4.3070     3.1070 c2         1 22B      -0.188200
     44 C33         15.7830    -4.4690     1.6840 c3         1 22B      -0.059000
     45 C34         17.1610    -5.1940     1.6830 c3         1 22B      -0.064400
     46 C35         17.1130    -6.6200     2.3010 c3         1 22B      -0.105400
     47 C36         18.4560    -7.4110     2.3040 c3         1 22B       0.183500
     48 C37         18.9790    -7.6840     0.8740 c3         1 22B      -0.100100
     49 C46         19.5410    -6.7140     3.1600 c3         1 22B      -0.100100
     50 O1          18.1950    -8.6810     2.9040 oh         1 22B      -0.661000
     51 C47         15.7630    -3.1050     0.9070 c3         1 22B       0.192500
     52 C48         15.9900    -3.2880    -0.6140 c3         1 22B      -0.101850
     53 C49         16.7640    -2.0680     1.4770 c3         1 22B      -0.101850
     54 O2          14.4560    -2.5550     1.0690 oh         1 22B      -0.657500
     55 H501         6.2200    -5.8190    11.5110 hc         1 22B       0.042700
     56 H502         4.9270    -6.7050    12.2830 hc         1 22B       0.042700
     57 H503         6.6090    -7.1630    12.5980 hc         1 22B       0.042700
     58 H44          4.7040    -9.3620     9.6570 ha         1 22B       0.169000
     59 H45          4.2080    -8.8270    12.7100 ha         1 22B       0.172000
     60 H15          2.8310   -10.6480    10.6640 ha         1 22B       0.172000
     61 H14          2.3750   -10.1180    13.7090 ha         1 22B       0.169000
     62 H201         1.7860   -12.5760    10.8740 hc         1 22B       0.042700
     63 H202         0.6270   -13.4840    11.8070 hc         1 22B       0.042700
     64 H203         0.1060   -12.0220    10.9520 hc         1 22B       0.042700
     65 H12          0.9080   -11.4800    14.9200 ha         1 22B       0.170000
     66 H11         -1.0730   -13.1070    13.2370 ha         1 22B       0.174000
     67 H10         -0.8860   -12.4040    16.2690 ha         1 22B       0.169000
     68 H191        -3.8720   -13.9770    14.0390 hc         1 22B       0.042533
     69 H192        -2.3500   -14.8300    13.7390 hc         1 22B       0.042533
     70 H193        -3.4780   -15.4750    14.9000 hc         1 22B       0.042533
     71 H8          -2.3270   -13.4470    17.7880 ha         1 22B       0.169000
     72 H7          -4.8160   -14.7520    16.5590 ha         1 22B       0.173500
     73 H6          -3.9920   -13.9910    19.4690 ha         1 22B       0.168000
     74 H181        -6.2610   -16.2030    17.3740 hc         1 22B       0.043033
     75 H182        -7.2630   -16.5960    18.7450 hc         1 22B       0.043033
     76 H183        -7.5410   -15.0830    17.8650 hc         1 22B       0.043033
     77 H4          -5.2940   -14.7300    21.2650 ha         1 22B       0.166000
     78 H3          -8.1760   -15.5610    20.5380 ha         1 22B       0.178000
     79 H2          -6.7410   -14.9070    23.1740 hc         1 22B       0.049200
     80 H211        -8.7710   -17.1330    22.6980 hc         1 22B       0.045700
     81 H212        -8.0500   -16.7040    24.2470 hc         1 22B       0.045700
     82 H221        -5.7580   -17.2220    23.2760 hc         1 22B       0.046200
     83 H222        -6.5390   -17.7870    21.8130 hc         1 22B       0.046200
     84 H241        -8.0740   -20.8980    23.3730 hc         1 22B       0.041283
     85 H242        -8.9740   -19.3760    23.3210 hc         1 22B       0.041283
     86 H243        -8.0600   -19.9150    21.8960 hc         1 22B       0.041283
     87 H251        -4.6250   -19.4410    23.5550 hc         1 22B       0.041283
     88 H252        -5.5740   -20.9380    23.6340 hc         1 22B       0.041283
     89 H253        -5.4110   -20.0710    22.0950 hc         1 22B       0.041283
     90 H27         -6.1090   -18.5100    25.2220 ho         1 22B       0.438500
     91 H161        -8.3790   -12.8550    21.3400 hc         1 22B       0.042533
     92 H162        -9.2510   -12.1300    22.6960 hc         1 22B       0.042533
     93 H163        -7.5160   -12.4730    22.8430 hc         1 22B       0.042533
     94 H171        -9.7760   -13.3590    24.7320 hc         1 22B       0.042533
     95 H172        -9.4390   -15.0790    24.9320 hc         1 22B       0.042533
     96 H173        -8.1180   -13.8980    25.0500 hc         1 22B       0.042533
     97 H26        -10.1980   -15.5770    22.7390 ho         1 22B       0.440500
     98 H42          6.5080    -8.1440     8.5920 ha         1 22B       0.170000
     99 H41          8.1120    -6.1790    10.3190 ha         1 22B       0.174000
    100 H40          8.4140    -7.2130     7.3920 ha         1 22B       0.169000
    101 H261        10.9330    -5.1610     9.8020 hc         1 22B       0.042533
    102 H262         9.3260    -4.4170     9.7960 hc         1 22B       0.042533
    103 H263        10.5570    -3.8020     8.7280 hc         1 22B       0.042533
    104 H38          9.9800    -6.2170     5.9690 ha         1 22B       0.169000
    105 H1          12.1670    -4.5770     7.3580 ha         1 22B       0.173500
    106 H28         11.8250    -5.7120     4.4750 ha         1 22B       0.168000
    107 H301        15.0210    -4.1510     6.4010 hc         1 22B       0.043033
    108 H302        13.6060    -3.1010     6.5810 hc         1 22B       0.043033
    109 H303        14.7630    -2.7690     5.3210 hc         1 22B       0.043033
    110 H31         13.3170    -5.0690     2.7980 ha         1 22B       0.166000
    111 H32         15.9950    -3.9080     3.8040 ha         1 22B       0.178000
    112 H33         15.0940    -5.1360     1.1500 hc         1 22B       0.049200
    113 H341        17.5250    -5.2710     0.6530 hc         1 22B       0.045700
    114 H342        17.8880    -4.5870     2.2340 hc         1 22B       0.045700
    115 H351        16.7510    -6.5440     3.3340 hc         1 22B       0.046200
    116 H352        16.3610    -7.2060     1.7580 hc         1 22B       0.046200
    117 H371        18.2040    -8.1550     0.2570 hc         1 22B       0.041283
    118 H372        19.8460    -8.3550     0.8980 hc         1 22B       0.041283
    119 H373        19.2920    -6.7570     0.3810 hc         1 22B       0.041283
    120 H461        20.4290    -7.3510     3.2570 hc         1 22B       0.041283
    121 H462        19.1690    -6.4940     4.1670 hc         1 22B       0.041283
    122 H463        19.8600    -5.7710     2.7010 hc         1 22B       0.041283
    123 HO1         17.8480    -8.5040     3.8040 ho         1 22B       0.438500
    124 H481        17.0140    -3.6110    -0.8290 hc         1 22B       0.042533
    125 H482        15.8240    -2.3440    -1.1480 hc         1 22B       0.042533
    126 H483        15.3000    -4.0340    -1.0280 hc         1 22B       0.042533
    127 H491        16.6540    -1.1030     0.9680 hc         1 22B       0.042533
    128 H492        16.6030    -1.9010     2.5480 hc         1 22B       0.042533
    129 H493        17.8000    -2.3990     1.3340 hc         1 22B       0.042533
    130 HO2         14.1450    -2.8930     1.9370 ho         1 22B       0.440500
@<TRIPOS>BOND
     1     1     2 1   
     2     1    16 1   
     3     1    17 1   
     4     1    26 1   
     5     2     3 1   
     6     2    21 1   
     7     2    79 1   
     8     3     4 2   
     9     3    78 1   
    10     4     5 1   
    11     4    77 1   
    12     5     6 2   
    13     5    18 1   
    14     6     7 1   
    15     6    73 1   
    16     7     8 2   
    17     7    72 1   
    18     8     9 1   
    19     8    71 1   
    20     9    10 2   
    21     9    19 1   
    22    10    11 1   
    23    10    67 1   
    24    11    12 2   
    25    11    66 1   
    26    12    13 1   
    27    12    65 1   
    28    13    14 2   
    29    13    20 1   
    30    14    15 1   
    31    14    61 1   
    32    15    35 2   
    33    15    60 1   
    34    16    91 1   
    35    16    92 1   
    36    16    93 1   
    37    17    94 1   
    38    17    95 1   
    39    17    96 1   
    40    18    74 1   
    41    18    75 1   
    42    18    76 1   
    43    19    68 1   
    44    19    69 1   
    45    19    70 1   
    46    20    62 1   
    47    20    63 1   
    48    20    64 1   
    49    21    22 1   
    50    21    80 1   
    51    21    81 1   
    52    22    23 1   
    53    22    82 1   
    54    22    83 1   
    55    23    24 1   
    56    23    25 1   
    57    23    27 1   
    58    24    84 1   
    59    24    85 1   
    60    24    86 1   
    61    25    87 1   
    62    25    88 1   
    63    25    89 1   
    64    26    97 1   
    65    27    90 1   
    66    28    29 1   
    67    28    38 2   
    68    28   104 1   
    69    29    30 2   
    70    29    37 1   
    71    30    31 1   
    72    30   100 1   
    73    31    32 2   
    74    31    99 1   
    75    32    33 1   
    76    32    98 1   
    77    33    34 2   
    78    33    36 1   
    79    34    35 1   
    80    34    58 1   
    81    35    59 1   
    82    36    55 1   
    83    36    56 1   
    84    36    57 1   
    85    37   101 1   
    86    37   102 1   
    87    37   103 1   
    88    38    39 1   
    89    38   105 1   
    90    39    40 2   
    91    39   106 1   
    92    40    41 1   
    93    40    42 1   
    94    41   107 1   
    95    41   108 1   
    96    41   109 1   
    97    42    43 2   
    98    42   110 1   
    99    43    44 1   
   100    43   111 1   
   101    44    45 1   
   102    44    51 1   
   103    44   112 1   
   104    45    46 1   
   105    45   113 1   
   106    45   114 1   
   107    46    47 1   
   108    46   115 1   
   109    46   116 1   
   110    47    48 1   
   111    47    49 1   
   112    47    50 1   
   113    48   117 1   
   114    48   118 1   
   115    48   119 1   
   116    49   120 1   
   117    49   121 1   
   118    49   122 1   
   119    50   123 1   
   120    51    52 1   
   121    51    53 1   
   122    51    54 1   
   123    52   124 1   
   124    52   125 1   
   125    52   126 1   
   126    53   127 1   
   127    53   128 1   
   128    53   129 1   
   129    54   130 1   
@<TRIPOS>SUBSTRUCTURE
     1 22B         1 TEMP              0 ****  ****    0 ROOT
