@<TRIPOS>MOLECULE
22C
   40    41     1     0     0
SMALL
abcg2


@<TRIPOS>ATOM
      1 C10          0.2990     0.0530     0.2590 c3         1 22C       0.076600
      2 N12         -2.0760     0.5580     0.4520 n          1 22C      -0.419800
      3 C13         -3.2420     1.4220     0.4740 c6         1 22C       0.079000
      4 C17         -6.9740     0.0440    -0.1680 c3         1 22C      -0.151400
      5 C20         -3.4090    -1.2860    -0.4350 c6         1 22C       0.079000
      6 C21         -2.3980    -0.8480     0.6150 c6         1 22C       0.079000
      7 C02          3.8160     0.8550    -0.0260 ca         1 22C       0.089000
      8 C03          5.0610     0.2580    -0.0690 ca         1 22C      -0.062000
      9 C04          5.1470    -1.1250    -0.0100 ca         1 22C       0.088000
     10 CL2          6.7050    -1.8790    -0.0600 cl         1 22C      -0.193000
     11 C06          4.0070    -1.8990     0.0860 ca         1 22C      -0.063000
     12 C07          2.7610    -1.2880     0.1280 ca         1 22C      -0.191000
     13 C08          2.6440     0.0970     0.0720 ca         1 22C       0.148100
     14 O09          1.4910     0.7770     0.1020 os         1 22C      -0.290100
     15 C11         -0.8410     1.0660     0.2730 c          1 22C       0.610100
     16 C14         -4.2520     0.9770    -0.5730 c6         1 22C       0.079000
     17 N15         -4.5750    -0.4260    -0.4030 n          1 22C      -0.420800
     18 C16         -5.8160    -0.9350    -0.2060 c          1 22C       0.608100
     19 C18         -8.3120    -0.6320     0.0750 c3         1 22C      -0.077100
     20 O19         -6.0020    -2.1370    -0.0700 o          1 22C      -0.600100
     21 O22         -0.6150     2.2540     0.1310 o          1 22C      -0.557100
     22 H1           0.1570    -0.6570    -0.5640 h1         1 22C       0.053200
     23 H2           0.3100    -0.5170     1.1950 h1         1 22C       0.053200
     24 H3          -3.7010     1.3850     1.4680 h1         1 22C       0.062700
     25 H4          -2.9420     2.4490     0.2830 h1         1 22C       0.062700
     26 H5          -6.7920     0.7920     0.6090 hc         1 22C       0.056700
     27 H6          -7.0040     0.5990    -1.1100 hc         1 22C       0.056700
     28 H7          -2.9480    -1.2430    -1.4280 h1         1 22C       0.063450
     29 H8          -3.7050    -2.3140    -0.2490 h1         1 22C       0.063450
     30 H9          -1.5140    -1.4740     0.5320 h1         1 22C       0.062700
     31 H10         -2.8110    -1.0100     1.6150 h1         1 22C       0.062700
     32 H11          5.9510     0.8680    -0.1480 ha         1 22C       0.146000
     33 H12          4.0730    -2.9770     0.1300 ha         1 22C       0.131000
     34 H13          1.8870    -1.9200     0.2050 ha         1 22C       0.119000
     35 H14         -5.1380     1.5990    -0.4940 h1         1 22C       0.063450
     36 H15         -3.8360     1.1350    -1.5740 h1         1 22C       0.063450
     37 H16         -8.3340    -1.1490     1.0340 hc         1 22C       0.043700
     38 H17         -9.1050     0.1150     0.0820 hc         1 22C       0.043700
     39 H18         -8.5460    -1.3580    -0.7020 hc         1 22C       0.043700
     40 CL1          3.6940     2.5750    -0.0970 cl         1 22C      -0.161000
@<TRIPOS>BOND
     1     1    14 1   
     2     1    15 1   
     3     1    22 1   
     4     1    23 1   
     5     2     3 1   
     6     2     6 1   
     7     2    15 1   
     8     3    16 1   
     9     3    24 1   
    10     3    25 1   
    11     4    18 1   
    12     4    19 1   
    13     4    26 1   
    14     4    27 1   
    15     5     6 1   
    16     5    17 1   
    17     5    28 1   
    18     5    29 1   
    19     6    30 1   
    20     6    31 1   
    21     7     8 ar  
    22     7    13 ar  
    23     7    40 1   
    24     8     9 ar  
    25     8    32 1   
    26     9    10 1   
    27     9    11 ar  
    28    11    12 ar  
    29    11    33 1   
    30    12    13 ar  
    31    12    34 1   
    32    13    14 1   
    33    15    21 2   
    34    16    17 1   
    35    16    35 1   
    36    16    36 1   
    37    17    18 1   
    38    18    20 2   
    39    19    37 1   
    40    19    38 1   
    41    19    39 1   
@<TRIPOS>SUBSTRUCTURE
     1 22C         1 TEMP              0 ****  ****    0 ROOT
