@<TRIPOS>MOLECULE
22C
   40    41     1     0     0
SMALL
No Charge or Current Charge


@<TRIPOS>ATOM
      1 C10          0.4890     0.1340     0.1630 c3         1 22C       0.076600
      2 N12         -2.0140     0.5940     0.0590 n          1 22C      -0.419800
      3 C13         -3.1840     1.5110     0.1410 c6         1 22C       0.079000
      4 C17         -7.3270    -0.0140    -0.0880 c3         1 22C      -0.151400
      5 C20         -3.6510    -1.3660    -0.1080 c6         1 22C       0.079000
      6 C21         -2.3300    -0.8030     0.4700 c6         1 22C       0.079000
      7 C02          4.1690     0.8810     0.1330 ca         1 22C       0.089000
      8 C03          5.4120     0.2270     0.0910 ca         1 22C      -0.062000
      9 C04          5.4660    -1.1750     0.0400 ca         1 22C       0.088000
     10 Cl2          7.0220    -1.9920    -0.0130 cl         1 22C      -0.193000
     11 C06          4.2790    -1.9260     0.0310 ca         1 22C      -0.063000
     12 C07          3.0310    -1.2770     0.0730 ca         1 22C      -0.191000
     13 C08          2.9690     0.1360     0.1250 ca         1 22C       0.148100
     14 O09          1.7650     0.8150     0.1680 os         1 22C      -0.290100
     15 C11         -0.7060     1.1210     0.2160 c          1 22C       0.610100
     16 C14         -4.5040     0.9450    -0.4350 c6         1 22C       0.079000
     17 N15         -4.8200    -0.4500    -0.0150 n          1 22C      -0.420800
     18 C16         -6.1250    -0.9790    -0.1720 c          1 22C       0.608100
     19 C18         -8.7220    -0.6770    -0.0220 c3         1 22C      -0.077100
     20 O19         -6.2960    -2.1850    -0.3120 o          1 22C      -0.600100
     21 O22         -0.5340     2.3320     0.3220 o          1 22C      -0.557100
     22 H1           0.3780    -0.4680    -0.7470 h1         1 22C       0.053200
     23 H2           0.4090    -0.5300     1.0330 h1         1 22C       0.053200
     24 H3          -3.3470     1.7620     1.1990 h1         1 22C       0.062700
     25 H4          -2.9590     2.4520    -0.3800 h1         1 22C       0.062700
     26 H5          -7.1630     0.6610     0.7600 hc         1 22C       0.056700
     27 H6          -7.2620     0.6780    -0.9350 hc         1 22C       0.056700
     28 H7          -3.4910    -1.6090    -1.1680 h1         1 22C       0.063450
     29 H8          -3.8750    -2.3110     0.4080 h1         1 22C       0.063450
     30 H9          -1.5230    -1.4870     0.1760 h1         1 22C       0.062700
     31 H10         -2.3920    -0.8310     1.5680 h1         1 22C       0.062700
     32 H11          6.3310     0.8060     0.0970 ha         1 22C       0.146000
     33 H12          4.3270    -3.0120    -0.0090 ha         1 22C       0.131000
     34 H13          2.1300    -1.8840     0.0650 ha         1 22C       0.119000
     35 H14         -5.3100     1.6320    -0.1470 h1         1 22C       0.063450
     36 H15         -4.4410     0.9650    -1.5320 h1         1 22C       0.063450
     37 H16         -8.8040    -1.3240     0.8590 hc         1 22C       0.043700
     38 H17         -9.5060     0.0880     0.0420 hc         1 22C       0.043700
     39 H18         -8.9090    -1.2820    -0.9170 hc         1 22C       0.043700
     40 Cl1          4.1330     2.6440     0.1970 cl         1 22C      -0.161000
@<TRIPOS>BOND
     1     1    14 1   
     2     1    15 1   
     3     1    22 1   
     4     1    23 1   
     5     2     3 1   
     6     2     6 1   
     7     2    15 1   
     8     3    16 1   
     9     3    24 1   
    10     3    25 1   
    11     4    18 1   
    12     4    19 1   
    13     4    26 1   
    14     4    27 1   
    15     5     6 1   
    16     5    17 1   
    17     5    28 1   
    18     5    29 1   
    19     6    30 1   
    20     6    31 1   
    21     7     8 ar  
    22     7    13 ar  
    23     7    40 1   
    24     8     9 ar  
    25     8    32 1   
    26     9    10 1   
    27     9    11 ar  
    28    11    12 ar  
    29    11    33 1   
    30    12    13 ar  
    31    12    34 1   
    32    13    14 1   
    33    15    21 2   
    34    16    17 1   
    35    16    35 1   
    36    16    36 1   
    37    17    18 1   
    38    18    20 2   
    39    19    37 1   
    40    19    38 1   
    41    19    39 1   
@<TRIPOS>SUBSTRUCTURE
     1 22C         1 TEMP              0 ****  ****    0 ROOT
