@<TRIPOS>MOLECULE
22D
   34    36     1     0     0
SMALL
No Charge or Current Charge


@<TRIPOS>ATOM
      1 C7          -2.0700     2.0590    -1.0870 ca         1 22D       0.081900
      2 N8          -3.4070     2.0360    -0.9060 nb         1 22D      -0.118000
      3 C8A         -3.9770     0.9400    -0.3500 ca         1 22D       0.313000
      4 N1          -5.3830     0.9320    -0.1670 nc         1 22D      -0.775700
      5 C2          -5.8100    -0.1750     0.3770 cd         1 22D       0.745800
      6 N2          -7.1090    -0.2020     0.5630 nv         1 22D      -1.063200
      7 N3          -5.1200    -1.2530     0.7650 ns         1 22D      -0.460400
      8 C4          -3.7760    -1.3620     0.6380 c          1 22D       0.490500
      9 O4          -3.1830    -2.3700     1.0000 o          1 22D      -0.488000
     10 C4A         -3.1260    -0.1510     0.0230 ca         1 22D       0.159500
     11 N5          -1.7700    -0.1350    -0.1570 nb         1 22D      -0.571000
     12 C6          -1.2430     0.9840    -0.7160 ca         1 22D       0.266300
     13 C9           0.2810     1.0480    -0.9420 c3         1 22D       0.189500
     14 N10          1.0710     0.3140     0.0800 nu         1 22D      -0.973200
     15 CBX          2.4520     0.1340     0.1060 ca         1 22D       0.281000
     16 CAR          2.9860    -0.9020     0.8820 ca         1 22D      -0.211000
     17 CAT          4.3760    -1.1110     0.9330 ca         1 22D      -0.052000
     18 CAQ          3.3150     0.9690    -0.6220 ca         1 22D      -0.211000
     19 CAS          4.7060     0.7650    -0.5760 ca         1 22D      -0.052000
     20 CBY          5.2560    -0.2790     0.2030 ca         1 22D      -0.167600
     21 CBV          6.7580    -0.5020     0.2540 c          1 22D       0.714600
     22 OAJ          7.4830     0.2410    -0.3930 o          1 22D      -0.729500
     23 H1          -1.6560     2.9590    -1.5380 h4         1 22D       0.033100
     24 H2          -7.5350     0.7050     0.4190 hn         1 22D       0.509000
     25 H3          -7.4450    -0.7040     1.3750 hn         1 22D       0.509000
     26 H4          -5.6040    -2.0480     1.1510 hn         1 22D       0.321500
     27 H5           0.4960     0.6360    -1.9380 h1         1 22D       0.042700
     28 H6           0.5870     2.1030    -0.9530 h1         1 22D       0.042700
     29 H7           0.5330    -0.3580     0.6340 hn         1 22D       0.489000
     30 H8           2.3280    -1.5520     1.4510 ha         1 22D       0.085000
     31 H9           4.7650    -1.9240     1.5430 ha         1 22D       0.122500
     32 H10          2.9200     1.7800    -1.2260 ha         1 22D       0.085000
     33 H11          5.3550     1.4250    -1.1490 ha         1 22D       0.122500
     34 OXT          7.1910    -1.4160     0.9410 o          1 22D      -0.729500
@<TRIPOS>BOND
     1     1     2 ar  
     2     1    12 ar  
     3     1    23 1   
     4     2     3 ar  
     5     3     4 1   
     6     3    10 ar  
     7     4     5 2   
     8     5     6 1   
     9     5     7 1   
    10     6    24 1   
    11     6    25 1   
    12     7     8 1   
    13     7    26 1   
    14     8     9 2   
    15     8    10 1   
    16    10    11 ar  
    17    11    12 ar  
    18    12    13 1   
    19    13    14 1   
    20    13    27 1   
    21    13    28 1   
    22    14    15 1   
    23    14    29 1   
    24    15    16 ar  
    25    15    18 ar  
    26    16    17 ar  
    27    16    30 1   
    28    17    20 ar  
    29    17    31 1   
    30    18    19 ar  
    31    18    32 1   
    32    19    20 ar  
    33    19    33 1   
    34    20    21 1   
    35    21    22 1   
    36    21    34 1   
@<TRIPOS>SUBSTRUCTURE
     1 22D         1 TEMP              0 ****  ****    0 ROOT
