@<TRIPOS>MOLECULE
22D
   34    36     1     0     0
SMALL
abcg2


@<TRIPOS>ATOM
      1 C7          -2.0270     1.9860    -1.1990 ca         1 22D       0.081900
      2 N8          -3.3310     1.9230    -1.1220 nb         1 22D      -0.118000
      3 C8A         -3.8650     0.9020    -0.4260 ca         1 22D       0.313000
      4 N1          -5.2120     0.8450    -0.3500 nc         1 22D      -0.775700
      5 C2          -5.7290    -0.1470     0.3230 cd         1 22D       0.745800
      6 N2          -7.0510    -0.2670     0.4280 nv         1 22D      -1.063200
      7 N3          -4.9740    -1.1060     0.9410 ns         1 22D      -0.460400
      8 C4          -3.5960    -1.1410     0.9300 c          1 22D       0.490500
      9 O4          -2.9770    -2.0150     1.5000 o          1 22D      -0.488000
     10 C4A         -3.0130    -0.0360     0.1750 ca         1 22D       0.159500
     11 N5          -1.6870     0.0430     0.0850 nb         1 22D      -0.571000
     12 C6          -1.1760     1.0410    -0.5920 ca         1 22D       0.266300
     13 C9           0.3140     1.1560    -0.7360 c3         1 22D       0.189500
     14 N10          0.9850     0.2520     0.1500 nu         1 22D      -0.973200
     15 CBX          2.3420     0.0750     0.1140 ca         1 22D       0.281000
     16 CAR          2.9230    -1.0050     0.8010 ca         1 22D      -0.211000
     17 CAT          4.2920    -1.1850     0.8060 ca         1 22D      -0.052000
     18 CAQ          3.1970     0.9530    -0.5660 ca         1 22D      -0.211000
     19 CAS          4.5700     0.7530    -0.5440 ca         1 22D      -0.052000
     20 CBY          5.1510    -0.3110     0.1360 ca         1 22D      -0.167600
     21 CBV          6.6520    -0.5160     0.1480 c          1 22D       0.714600
     22 OAJ          7.3400     0.3140    -0.4810 o          1 22D      -0.729500
     23 H1          -1.6030     2.8150    -1.7560 h4         1 22D       0.033100
     24 H2          -7.6380     0.4450     0.0290 hn         1 22D       0.509000
     25 H3          -7.4890    -0.9890     0.9730 hn         1 22D       0.509000
     26 H4          -5.4410    -1.8500     1.4450 hn         1 22D       0.321500
     27 H5           0.5750     0.9800    -1.7910 h1         1 22D       0.042700
     28 H6           0.6040     2.1910    -0.5270 h1         1 22D       0.042700
     29 H7           0.4320    -0.5360     0.4530 hn         1 22D       0.489000
     30 H8           2.2840    -1.7020     1.3310 ha         1 22D       0.085000
     31 H9           4.7080    -2.0290     1.3410 ha         1 22D       0.122500
     32 H10          2.7980     1.8000    -1.1090 ha         1 22D       0.085000
     33 H11          5.2050     1.4490    -1.0780 ha         1 22D       0.122500
     34 OXT          7.0830    -1.4990     0.7860 o          1 22D      -0.729500
@<TRIPOS>BOND
     1     1     2 ar  
     2     1    12 ar  
     3     1    23 1   
     4     2     3 ar  
     5     3     4 1   
     6     3    10 ar  
     7     4     5 2   
     8     5     6 1   
     9     5     7 1   
    10     6    24 1   
    11     6    25 1   
    12     7     8 1   
    13     7    26 1   
    14     8     9 2   
    15     8    10 1   
    16    10    11 ar  
    17    11    12 ar  
    18    12    13 1   
    19    13    14 1   
    20    13    27 1   
    21    13    28 1   
    22    14    15 1   
    23    14    29 1   
    24    15    16 ar  
    25    15    18 ar  
    26    16    17 ar  
    27    16    30 1   
    28    17    20 ar  
    29    17    31 1   
    30    18    19 ar  
    31    18    32 1   
    32    19    20 ar  
    33    19    33 1   
    34    20    21 1   
    35    21    22 1   
    36    21    34 1   
@<TRIPOS>SUBSTRUCTURE
     1 22D         1 TEMP              0 ****  ****    0 ROOT
