@<TRIPOS>MOLECULE
22E
   47    51     1     0     0
SMALL
No Charge or Current Charge


@<TRIPOS>ATOM
      1 CAA          4.9120     2.5750     0.6630 c3         1 22E      -0.047900
      2 CAB          1.5300    -1.8540    -1.3900 c3         1 22E      -0.065900
      3 OAC         -4.0580     0.8930     1.9990 o          1 22E      -0.461000
      4 OAD          3.7240    -3.0330     0.7650 o          1 22E      -0.521000
      5 CAE         -7.8730    -1.4650    -0.4340 ca         1 22E      -0.079000
      6 CAF         -7.7900    -0.8710     0.8350 ca         1 22E      -0.128000
      7 CAG         -6.7520    -1.4640    -1.2790 ca         1 22E      -0.128000
      8 CAH          6.6460    -1.3380    -0.1660 c2         1 22E      -0.055400
      9 CAI         -6.5890    -0.2770     1.2610 ca         1 22E      -0.053500
     10 CAJ         -5.5480    -0.8710    -0.8580 ca         1 22E      -0.053500
     11 CAK         -1.8080     2.2590     0.5280 ca         1 22E      -0.105000
     12 CAL          6.1530    -0.0790    -0.2210 ce         1 22E      -0.255000
     13 CAM         -0.5400     2.8610     0.6770 ca         1 22E      -0.061000
     14 CAN         -0.7580     0.1450    -0.1220 ca         1 22E      -0.072000
     15 NAO          5.7720    -2.4310    -0.0080 ns         1 22E      -0.418100
     16 NAP          1.9390     2.5430     0.5410 nc         1 22E      -0.535100
     17 CAR         -4.1700     0.3740     0.8950 c          1 22E       0.607700
     18 CAS         -1.9160     0.9000     0.1450 ca         1 22E       0.094100
     19 CAT         -5.4530    -0.2700     0.4200 ca         1 22E      -0.144600
     20 CAU          4.1060     1.3720     0.1760 cf         1 22E      -0.115800
     21 CAV          2.3460    -0.8550    -0.5890 c2         1 22E       0.028600
     22 CAW          4.4060    -2.2890     0.0760 c          1 22E       0.578000
     23 CAX          0.6110     2.0990     0.4230 ca         1 22E       0.102400
     24 CAY          4.7010     0.1930    -0.1830 ce         1 22E      -0.060200
     25 CAZ          0.4860     0.7800     0.0220 ca         1 22E      -0.079800
     26 CBA          2.6430     1.4490     0.1950 cd         1 22E       0.484900
     27 CBB          3.8720    -1.0350    -0.6430 c6         1 22E      -0.088300
     28 CBC          1.8370     0.3300    -0.1430 cd         1 22E      -0.188800
     29 HAA          5.2410     3.1930    -0.1810 hc         1 22E       0.052367
     30 HAAA         4.3400     3.2190     1.3400 hc         1 22E       0.052367
     31 HAAB         5.8050     2.2670     1.2180 hc         1 22E       0.052367
     32 HAB          0.9370    -2.4940    -0.7260 hc         1 22E       0.059700
     33 HABA         0.8460    -1.3480    -2.0810 hc         1 22E       0.059700
     34 HABB         2.1660    -2.5130    -1.9930 hc         1 22E       0.059700
     35 HAF         -8.6580    -0.8700     1.4910 ha         1 22E       0.119000
     36 HAG         -6.8140    -1.9240    -2.2630 ha         1 22E       0.119000
     37 HAH          7.7130    -1.5820    -0.1810 h4         1 22E       0.200000
     38 HAI         -6.5460     0.1790     2.2490 ha         1 22E       0.134000
     39 HAJ         -4.6950    -0.8850    -1.5330 ha         1 22E       0.134000
     40 HAK         -2.7030     2.8480     0.7110 ha         1 22E       0.127000
     41 HAL          6.8330     0.7720    -0.2870 ha         1 22E       0.203000
     42 HAM         -0.4530     3.9000     0.9830 ha         1 22E       0.133000
     43 HAN         -0.8420    -0.8950    -0.4190 ha         1 22E       0.128000
     44 HNAO         6.1450    -3.2970     0.3680 hn         1 22E       0.329500
     45 HBB          4.1920    -1.1530    -1.6870 hc         1 22E       0.099700
     46 OAQ         -3.1450     0.3030    -0.0160 os         1 22E      -0.357200
     47 HAE         -8.8030    -1.9240    -0.7620 ha         1 22E       0.115000
@<TRIPOS>BOND
     1     1    20 1   
     2     1    29 1   
     3     1    30 1   
     4     1    31 1   
     5     2    21 1   
     6     2    32 1   
     7     2    33 1   
     8     2    34 1   
     9     3    17 2   
    10     4    22 2   
    11     5     6 ar  
    12     5     7 ar  
    13     5    47 1   
    14     6     9 ar  
    15     6    35 1   
    16     7    10 ar  
    17     7    36 1   
    18     8    12 2   
    19     8    15 1   
    20     8    37 1   
    21     9    19 ar  
    22     9    38 1   
    23    10    19 ar  
    24    10    39 1   
    25    11    13 ar  
    26    11    18 ar  
    27    11    40 1   
    28    12    24 1   
    29    12    41 1   
    30    13    23 ar  
    31    13    42 1   
    32    14    18 ar  
    33    14    25 ar  
    34    14    43 1   
    35    15    22 1   
    36    15    44 1   
    37    16    23 1   
    38    16    26 2   
    39    17    19 1   
    40    17    46 1   
    41    18    46 1   
    42    20    24 2   
    43    20    26 1   
    44    21    27 1   
    45    21    28 2   
    46    22    27 1   
    47    23    25 ar  
    48    24    27 1   
    49    25    28 1   
    50    26    28 1   
    51    27    45 1   
@<TRIPOS>SUBSTRUCTURE
     1 22E         1 TEMP              0 ****  ****    0 ROOT
