@<TRIPOS>MOLECULE
22E
   47    51     1     0     0
SMALL
abcg2


@<TRIPOS>ATOM
      1 CAA          4.8410     2.5790     0.5610 c3         1 22E      -0.047900
      2 CAB          1.4430    -1.9630    -1.1390 c3         1 22E      -0.065900
      3 OAC         -3.3930     0.0810     1.8010 o          1 22E      -0.461000
      4 OAD          3.4470    -3.1520     0.5750 o          1 22E      -0.521000
      5 CAE         -7.7150    -1.4000    -0.2790 ca         1 22E      -0.079000
      6 CAF         -7.2620    -1.4010     1.0350 ca         1 22E      -0.128000
      7 CAG         -6.9110    -0.8940    -1.2920 ca         1 22E      -0.128000
      8 CAH          6.4360    -1.3620     0.1240 c2         1 22E      -0.055400
      9 CAI         -6.0060    -0.9000     1.3330 ca         1 22E      -0.053500
     10 CAJ         -5.6550    -0.3880    -0.9980 ca         1 22E      -0.053500
     11 CAK         -1.7870     2.4910     0.2400 ca         1 22E      -0.105000
     12 CAL          6.0090    -0.1040    -0.0540 ce         1 22E      -0.255000
     13 CAM         -0.5190     3.0230     0.4340 ca         1 22E      -0.061000
     14 CAN         -0.8500     0.3180    -0.3230 ca         1 22E      -0.072000
     15 NAO          5.5590    -2.4150     0.2990 ns         1 22E      -0.418100
     16 NAP          1.9180     2.5420     0.4120 nc         1 22E      -0.535100
     17 CAR         -3.8600     0.1270     0.6940 c          1 22E       0.607700
     18 CAS         -1.9350     1.1610    -0.1290 ca         1 22E       0.094100
     19 CAT         -5.1950    -0.3900     0.3190 ca         1 22E      -0.144600
     20 CAU          4.0390     1.3670     0.2000 cf         1 22E      -0.115800
     21 CAV          2.2810    -0.8590    -0.5860 c2         1 22E       0.028600
     22 CAW          4.2090    -2.2960     0.1850 c          1 22E       0.578000
     23 CAX          0.5800     2.1970     0.2490 ca         1 22E       0.102400
     24 CAY          4.5880     0.1650    -0.0970 ce         1 22E      -0.060200
     25 CAZ          0.4160     0.8520    -0.1410 ca         1 22E      -0.079800
     26 CBA          2.6060     1.4670     0.1590 cd         1 22E       0.484900
     27 CBB          3.7670    -1.0200    -0.5410 c6         1 22E      -0.088300
     28 CBC          1.7680     0.3280    -0.2170 cd         1 22E      -0.188800
     29 HAA          5.1280     3.1390    -0.3320 hc         1 22E       0.052367
     30 HAAA         4.2620     3.2520     1.1900 hc         1 22E       0.052367
     31 HAAB         5.7540     2.3210     1.0950 hc         1 22E       0.052367
     32 HAB          0.9450    -2.5170    -0.3430 hc         1 22E       0.059700
     33 HABA         0.6700    -1.5600    -1.7920 hc         1 22E       0.059700
     34 HABB         2.0310    -2.6740    -1.7150 hc         1 22E       0.059700
     35 HAF         -7.8870    -1.7910     1.8260 ha         1 22E       0.119000
     36 HAG         -7.2620    -0.8960    -2.3150 ha         1 22E       0.119000
     37 HAH          7.4810    -1.6210     0.1950 h4         1 22E       0.200000
     38 HAI         -5.6560    -0.9020     2.3560 ha         1 22E       0.134000
     39 HAJ         -5.0420     0.0010    -1.7990 ha         1 22E       0.134000
     40 HAK         -2.6640     3.1110     0.3740 ha         1 22E       0.127000
     41 HAL          6.7350     0.6930    -0.1190 ha         1 22E       0.203000
     42 HAM         -0.3950     4.0570     0.7280 ha         1 22E       0.133000
     43 HAN         -1.0130    -0.7160    -0.5970 ha         1 22E       0.128000
     44 HNAO         5.9130    -3.2740     0.6950 hn         1 22E       0.329500
     45 HBB          4.0720    -1.2070    -1.5880 hc         1 22E       0.099700
     46 OAQ         -3.2090     0.6640    -0.3500 os         1 22E      -0.357200
     47 HAE         -8.6950    -1.7950    -0.5140 ha         1 22E       0.115000
@<TRIPOS>BOND
     1     1    20 1   
     2     1    29 1   
     3     1    30 1   
     4     1    31 1   
     5     2    21 1   
     6     2    32 1   
     7     2    33 1   
     8     2    34 1   
     9     3    17 2   
    10     4    22 2   
    11     5     6 ar  
    12     5     7 ar  
    13     5    47 1   
    14     6     9 ar  
    15     6    35 1   
    16     7    10 ar  
    17     7    36 1   
    18     8    12 2   
    19     8    15 1   
    20     8    37 1   
    21     9    19 ar  
    22     9    38 1   
    23    10    19 ar  
    24    10    39 1   
    25    11    13 ar  
    26    11    18 ar  
    27    11    40 1   
    28    12    24 1   
    29    12    41 1   
    30    13    23 ar  
    31    13    42 1   
    32    14    18 ar  
    33    14    25 ar  
    34    14    43 1   
    35    15    22 1   
    36    15    44 1   
    37    16    23 1   
    38    16    26 2   
    39    17    19 1   
    40    17    46 1   
    41    18    46 1   
    42    20    24 2   
    43    20    26 1   
    44    21    27 1   
    45    21    28 2   
    46    22    27 1   
    47    23    25 ar  
    48    24    27 1   
    49    25    28 1   
    50    26    28 1   
    51    27    45 1   
@<TRIPOS>SUBSTRUCTURE
     1 22E         1 TEMP              0 ****  ****    0 ROOT
