@<TRIPOS>MOLECULE
22F
   23    24     1     0     0
SMALL
abcg2


@<TRIPOS>ATOM
      1 F15         -4.5930     0.9330     0.3520 f          1 22F      -0.171000
      2 C12         -3.3570     0.4370     0.2340 ca         1 22F       0.201000
      3 C11         -2.2950     1.1670     0.7330 ca         1 22F      -0.167500
      4 C10         -1.0180     0.6510     0.5930 ca         1 22F      -0.035000
      5 C13         -3.1900    -0.7910    -0.3830 ca         1 22F      -0.167500
      6 C14         -1.9110    -1.3010    -0.4990 ca         1 22F      -0.035000
      7 C9          -0.8100    -0.5830    -0.0250 ca         1 22F      -0.192600
      8 C7           0.5370    -1.1850    -0.1370 c          1 22F       0.594300
      9 O8           0.6890    -2.3820    -0.2620 o          1 22F      -0.506100
     10 C1           1.7390    -0.2970    -0.0960 ca         1 22F      -0.127600
     11 C6           2.8760    -0.7140     0.5860 ca         1 22F      -0.127500
     12 C5           3.9960     0.1020     0.5690 ca         1 22F       0.329400
     13 N4           4.0520     1.2540    -0.0910 nb         1 22F      -0.651000
     14 C3           2.9720     1.6370    -0.7590 ca         1 22F       0.329400
     15 C2           1.7910     0.9090    -0.7850 ca         1 22F      -0.127500
     16 H11         -2.4620     2.1170     1.2220 ha         1 22F       0.138500
     17 H10         -0.1850     1.2140     0.9930 ha         1 22F       0.131500
     18 H13         -4.0450    -1.3370    -0.7600 ha         1 22F       0.138500
     19 H14         -1.7650    -2.2600    -0.9770 ha         1 22F       0.131500
     20 H6           2.8920    -1.6450     1.1360 ha         1 22F       0.134000
     21 H5           4.8880    -0.1910     1.1110 h4         1 22F       0.024100
     22 H3           3.0390     2.5740    -1.3000 h4         1 22F       0.024100
     23 H2           0.9470     1.2760    -1.3530 ha         1 22F       0.134000
@<TRIPOS>BOND
     1     1     2 1   
     2     2     3 ar  
     3     2     5 ar  
     4     3     4 ar  
     5     3    16 1   
     6     4     7 ar  
     7     4    17 1   
     8     5     6 ar  
     9     5    18 1   
    10     6     7 ar  
    11     6    19 1   
    12     7     8 1   
    13     8     9 2   
    14     8    10 1   
    15    10    11 ar  
    16    10    15 ar  
    17    11    12 ar  
    18    11    20 1   
    19    12    13 ar  
    20    12    21 1   
    21    13    14 ar  
    22    14    15 ar  
    23    14    22 1   
    24    15    23 1   
@<TRIPOS>SUBSTRUCTURE
     1 22F         1 TEMP              0 ****  ****    0 ROOT
