@<TRIPOS>MOLECULE
22F
   23    24     1     0     0
SMALL
No Charge or Current Charge


@<TRIPOS>ATOM
      1 F15         -4.6560     1.0370     0.1310 f          1 22F      -0.171000
      2 C12         -3.4170     0.5000     0.1140 ca         1 22F       0.201000
      3 C11         -2.3520     1.1850     0.7150 ca         1 22F      -0.167500
      4 C10         -1.0610     0.6280     0.7010 ca         1 22F      -0.035000
      5 C13         -3.2030    -0.7430    -0.4970 ca         1 22F      -0.167500
      6 C14         -1.9150    -1.3050    -0.5140 ca         1 22F      -0.035000
      7 C9          -0.8290    -0.6170     0.0720 ca         1 22F      -0.192600
      8 C7           0.5470    -1.2410     0.0590 c          1 22F       0.594300
      9 O8           0.6740    -2.4590     0.1150 o          1 22F      -0.506100
     10 C1           1.7660    -0.3470    -0.0230 ca         1 22F      -0.127600
     11 C6           3.0010    -0.7560     0.5260 ca         1 22F      -0.127500
     12 C5           4.1240     0.0830     0.4200 ca         1 22F       0.329400
     13 N4           4.0910     1.2850    -0.2010 nb         1 22F      -0.651000
     14 C3           2.9150     1.6790    -0.7440 ca         1 22F       0.329400
     15 C2           1.7440     0.9030    -0.6840 ca         1 22F      -0.127500
     16 H11         -2.5290     2.1430     1.1970 ha         1 22F       0.138500
     17 H10         -0.2490     1.1620     1.1920 ha         1 22F       0.131500
     18 H13         -4.0360    -1.2710    -0.9550 ha         1 22F       0.138500
     19 H14         -1.7600    -2.2720    -0.9910 ha         1 22F       0.131500
     20 H6           3.0970    -1.7110     1.0360 ha         1 22F       0.134000
     21 H5           5.0810    -0.2170     0.8450 h4         1 22F       0.024100
     22 H3           2.9140     2.6440    -1.2490 h4         1 22F       0.024100
     23 H2           0.8410     1.2730    -1.1630 ha         1 22F       0.134000
@<TRIPOS>BOND
     1     1     2 1   
     2     2     3 ar  
     3     2     5 ar  
     4     3     4 ar  
     5     3    16 1   
     6     4     7 ar  
     7     4    17 1   
     8     5     6 ar  
     9     5    18 1   
    10     6     7 ar  
    11     6    19 1   
    12     7     8 1   
    13     8     9 2   
    14     8    10 1   
    15    10    11 ar  
    16    10    15 ar  
    17    11    12 ar  
    18    11    20 1   
    19    12    13 ar  
    20    12    21 1   
    21    13    14 ar  
    22    14    15 ar  
    23    14    22 1   
    24    15    23 1   
@<TRIPOS>SUBSTRUCTURE
     1 22F         1 TEMP              0 ****  ****    0 ROOT
