@<TRIPOS>MOLECULE
22G
   44    45     1     0     0
SMALL
bcc


@<TRIPOS>ATOM
      1 CD1         -3.0110     1.0300    -1.4430 ca         1 22G      -0.098000
      2 CE1         -3.2180     2.3990    -1.3330 ca         1 22G      -0.199000
      3 CZ          -3.8250     2.9190    -0.1950 ca         1 22G       0.108100
      4 OH          -4.0560     4.2390    -0.0260 oh         1 22G      -0.509100
      5 CE2         -4.2220     2.0520     0.8220 ca         1 22G      -0.199000
      6 CD2         -4.0030     0.6910     0.6950 ca         1 22G      -0.098000
      7 CG          -3.3940     0.1480    -0.4370 ca         1 22G      -0.089300
      8 CB          -3.1200    -1.3270    -0.5330 c3         1 22G      -0.028100
      9 CA          -1.8840    -1.7640     0.2740 c3         1 22G       0.037500
     10 C1          -1.7670    -3.3050     0.1920 c          1 22G       0.930600
     11 O           -0.8570    -3.7960    -0.4990 o          1 22G      -0.826800
     12 NAA         -0.7150    -1.0670    -0.2190 n7         1 22G      -0.769200
     13 CAN          0.4320    -1.1510     0.6590 c3         1 22G       0.130800
     14 CAU          1.6180    -0.3510     0.1160 c3         1 22G       0.164500
     15 N            1.3430     1.0540    -0.1350 n8         1 22G      -0.911800
     16 CAO          2.7990    -0.4720     1.0850 c3         1 22G      -0.030100
     17 CAS          4.0710     0.1100     0.5420 ca         1 22G      -0.043300
     18 CAH          4.4890     1.3920     0.8890 ca         1 22G      -0.119000
     19 CAF          5.6580     1.9300     0.3660 ca         1 22G      -0.135500
     20 CAE          6.4290     1.1920    -0.5220 ca         1 22G      -0.145000
     21 CAG          6.0230    -0.0870    -0.8790 ca         1 22G      -0.135500
     22 CAI          4.8550    -0.6200    -0.3490 ca         1 22G      -0.119000
     23 H1          -2.5390     0.6430    -2.3390 ha         1 22G       0.138500
     24 H2          -2.9070     3.0560    -2.1380 ha         1 22G       0.125000
     25 H3          -3.7330     4.7330    -0.7870 ho         1 22G       0.414000
     26 H4          -4.7000     2.4490     1.7100 ha         1 22G       0.125000
     27 H5          -4.3190     0.0350     1.4990 ha         1 22G       0.138500
     28 H6          -3.9800    -1.8890    -0.1660 hc         1 22G       0.063200
     29 H7          -2.9750    -1.6070    -1.5800 hc         1 22G       0.063200
     30 H8          -2.0820    -1.5120     1.3320 h1         1 22G       0.005700
     31 O1          -2.6410    -3.9320     0.8270 o          1 22G      -0.826800
     32 H10         -0.9600    -0.0870    -0.3040 hn         1 22G       0.303800
     33 H12          0.2050    -0.7970     1.6820 h1         1 22G       0.037200
     34 H13          0.7280    -2.1980     0.7520 h1         1 22G       0.037200
     35 H14          1.9100    -0.7970    -0.8420 h1         1 22G       0.076700
     36 H15          0.6840     1.1670    -0.8940 hn         1 22G       0.339800
     37 H16          0.9310     1.4870     0.6840 hn         1 22G       0.339800
     38 H18          2.5320     0.0190     2.0260 hc         1 22G       0.045200
     39 H19          2.9510    -1.5290     1.3210 hc         1 22G       0.045200
     40 H20          3.8940     1.9760     1.5820 ha         1 22G       0.130000
     41 H21          5.9650     2.9280     0.6530 ha         1 22G       0.118500
     42 H22          7.3410     1.6090    -0.9300 ha         1 22G       0.116000
     43 H23          6.6170    -0.6730    -1.5690 ha         1 22G       0.118500
     44 H24          4.5500    -1.6220    -0.6310 ha         1 22G       0.130000
@<TRIPOS>BOND
     1     1     2 ar  
     2     1     7 ar  
     3     1    23 1   
     4     2     3 ar  
     5     2    24 1   
     6     3     4 1   
     7     3     5 ar  
     8     4    25 1   
     9     5     6 ar  
    10     5    26 1   
    11     6     7 ar  
    12     6    27 1   
    13     7     8 1   
    14     8     9 1   
    15     8    28 1   
    16     8    29 1   
    17     9    10 1   
    18     9    12 1   
    19     9    30 1   
    20    10    11 1   
    21    10    31 1   
    22    12    13 1   
    23    12    32 1   
    24    13    14 1   
    25    13    33 1   
    26    13    34 1   
    27    14    15 1   
    28    14    16 1   
    29    14    35 1   
    30    15    36 1   
    31    15    37 1   
    32    16    17 1   
    33    16    38 1   
    34    16    39 1   
    35    17    18 ar  
    36    17    22 ar  
    37    18    19 ar  
    38    18    40 1   
    39    19    20 ar  
    40    19    41 1   
    41    20    21 ar  
    42    20    42 1   
    43    21    22 ar  
    44    21    43 1   
    45    22    44 1   
@<TRIPOS>SUBSTRUCTURE
     1 22G         1 TEMP              0 ****  ****    0 ROOT
