@<TRIPOS>MOLECULE
22G
   44    45     1     0     0
SMALL
No Charge or Current Charge


@<TRIPOS>ATOM
      1 CD1         -3.1980     1.0600    -1.5700 ca         1 22G      -0.080000
      2 CE1         -3.5100     2.4260    -1.4550 ca         1 22G      -0.181000
      3 CZ          -4.1060     2.9140    -0.2810 ca         1 22G       0.108100
      4 OH          -4.4110     4.2360    -0.1650 oh         1 22G      -0.548100
      5 CE2         -4.3890     2.0390     0.7780 ca         1 22G      -0.181000
      6 CD2         -4.0770     0.6720     0.6660 ca         1 22G      -0.080000
      7 CG          -3.4790     0.1750    -0.5090 ca         1 22G      -0.089300
      8 CB          -3.1410    -1.3110    -0.6290 c3         1 22G      -0.028100
      9 CA          -1.9380    -1.7370     0.2530 c3         1 22G       0.037500
     10 C1          -1.7680    -3.3140     0.2820 c          1 22G       0.720000
     11 O           -1.8780    -3.9480    -0.7620 o          1 22G      -0.721500
     12 NAA         -0.7190    -0.9680    -0.1720 n7         1 22G      -0.824400
     13 CAN          0.4620    -1.0970     0.7180 c3         1 22G       0.130800
     14 CAU          1.7030    -0.3140     0.1800 c3         1 22G       0.164500
     15 N            1.3890     1.1190    -0.0810 n8         1 22G      -1.022200
     16 CAO          2.9190    -0.4550     1.1330 c3         1 22G      -0.030100
     17 CAS          4.2220     0.1010     0.5620 ca         1 22G      -0.043300
     18 CAH          4.7950     1.2750     1.0920 ca         1 22G      -0.101000
     19 CAF          6.0020     1.7750     0.5730 ca         1 22G      -0.117500
     20 CAE          6.6470     1.1030    -0.4790 ca         1 22G      -0.127000
     21 CAG          6.0850    -0.0700    -1.0100 ca         1 22G      -0.117500
     22 CAI          4.8770    -0.5700    -0.4910 ca         1 22G      -0.101000
     23 H1          -2.7350     0.6890    -2.4820 ha         1 22G       0.120500
     24 H2          -3.2880     3.0980    -2.2810 ha         1 22G       0.107000
     25 H3          -4.1460     4.6880    -0.9950 ho         1 22G       0.453000
     26 H4          -4.8510     2.4160     1.6870 ha         1 22G       0.107000
     27 H5          -4.3000    -0.0010     1.4910 ha         1 22G       0.120500
     28 H6          -4.0160    -1.9040    -0.3360 hc         1 22G       0.063200
     29 H7          -2.9360    -1.5750    -1.6740 hc         1 22G       0.063200
     30 H8          -2.1860    -1.4390     1.2810 h1         1 22G       0.005700
     31 O1          -1.5670    -3.8530     1.3640 o          1 22G      -0.721500
     32 H10         -0.9820     0.0220    -0.2020 hn         1 22G       0.359000
     33 H12          0.2160    -0.7280     1.7230 h1         1 22G       0.037200
     34 H13          0.7430    -2.1540     0.8200 h1         1 22G       0.037200
     35 H14          1.9850    -0.7720    -0.7800 h1         1 22G       0.076700
     36 H15          0.6440     1.1560    -0.7840 hn         1 22G       0.395000
     37 H16          0.9520     1.5180     0.7560 hn         1 22G       0.395000
     38 H18          2.6840     0.0240     2.0920 hc         1 22G       0.045200
     39 H19          3.0620    -1.5190     1.3620 hc         1 22G       0.045200
     40 H20          4.3030     1.8020     1.9060 ha         1 22G       0.112000
     41 H21          6.4370     2.6820     0.9850 ha         1 22G       0.100500
     42 H22          7.5810     1.4890    -0.8810 ha         1 22G       0.098000
     43 H23          6.5840    -0.5930    -1.8230 ha         1 22G       0.100500
     44 H24          4.4510    -1.4810    -0.9050 ha         1 22G       0.112000
@<TRIPOS>BOND
     1     1     2 ar  
     2     1     7 ar  
     3     1    23 1   
     4     2     3 ar  
     5     2    24 1   
     6     3     4 1   
     7     3     5 ar  
     8     4    25 1   
     9     5     6 ar  
    10     5    26 1   
    11     6     7 ar  
    12     6    27 1   
    13     7     8 1   
    14     8     9 1   
    15     8    28 1   
    16     8    29 1   
    17     9    10 1   
    18     9    12 1   
    19     9    30 1   
    20    10    11 1   
    21    10    31 1   
    22    12    13 1   
    23    12    32 1   
    24    13    14 1   
    25    13    33 1   
    26    13    34 1   
    27    14    15 1   
    28    14    16 1   
    29    14    35 1   
    30    15    36 1   
    31    15    37 1   
    32    16    17 1   
    33    16    38 1   
    34    16    39 1   
    35    17    18 ar  
    36    17    22 ar  
    37    18    19 ar  
    38    18    40 1   
    39    19    20 ar  
    40    19    41 1   
    41    20    21 ar  
    42    20    42 1   
    43    21    22 ar  
    44    21    43 1   
    45    22    44 1   
@<TRIPOS>SUBSTRUCTURE
     1 22G         1 TEMP              0 ****  ****    0 ROOT
