@<TRIPOS>MOLECULE
22J
   25    25     1     0     0
SMALL
No Charge or Current Charge


@<TRIPOS>ATOM
      1 OA1          4.6830     0.5940     1.5050 o          1 22J      -0.692000
      2 CA1          4.7620     0.1960     0.3450 c          1 22J       0.652000
      3 OA2          5.8210     0.1750    -0.2800 o          1 22J      -0.692000
      4 CA2          3.4120    -0.3160    -0.3990 c          1 22J       0.405300
      5 OA3          3.3480    -0.4620    -1.6240 o          1 22J      -0.543100
      6 CA3          2.2250    -0.6140     0.4780 ce         1 22J      -0.216200
      7 CA4          1.0230    -1.0500     0.0200 c2         1 22J      -0.289200
      8 CA5         -0.2050    -1.3700     0.8690 c3         1 22J       0.141500
      9 FA5         -0.2220    -0.6100     1.9960 f          1 22J      -0.254000
     10 CA6         -1.5500    -1.2670     0.0920 c          1 22J       0.570700
     11 OA4         -2.0270    -2.2660    -0.4390 o          1 22J      -0.503100
     12 CB1         -2.2320     0.0790    -0.0330 ca         1 22J      -0.202600
     13 CB6         -1.4720     1.2730    -0.0690 ca         1 22J      -0.023000
     14 CB3         -2.1070     2.5210    -0.1930 ca         1 22J      -0.138000
     15 CB4         -3.5050     2.5990    -0.2800 ca         1 22J      -0.069000
     16 CB5         -4.2680     1.4230    -0.2410 ca         1 22J      -0.179000
     17 CB2         -3.6400     0.1730    -0.1190 ca         1 22J       0.212000
     18 FB2         -4.4190    -0.9300    -0.0570 f          1 22J      -0.171000
     19 H3           2.3830    -0.4570     1.5460 ha         1 22J       0.212000
     20 H5           0.8710    -1.2140    -1.0510 ha         1 22J       0.198000
     21 H6          -0.1270    -2.4150     1.1950 h1         1 22J       0.071700
     22 H7          -0.3860     1.2470    -0.0110 ha         1 22J       0.149000
     23 H8          -1.5110     3.4310    -0.2230 ha         1 22J       0.125000
     24 H9          -3.9940     3.5670    -0.3750 ha         1 22J       0.110000
     25 H10         -5.3520     1.4770    -0.3010 ha         1 22J       0.124000
@<TRIPOS>BOND
     1     1     2 1   
     2     2     3 1   
     3     2     4 1   
     4     4     5 2   
     5     4     6 1   
     6     6     7 2   
     7     6    19 1   
     8     7     8 1   
     9     7    20 1   
    10     8     9 1   
    11     8    10 1   
    12     8    21 1   
    13    10    11 2   
    14    10    12 1   
    15    12    13 ar  
    16    12    17 ar  
    17    13    14 ar  
    18    13    22 1   
    19    14    15 ar  
    20    14    23 1   
    21    15    16 ar  
    22    15    24 1   
    23    16    17 ar  
    24    16    25 1   
    25    17    18 1   
@<TRIPOS>SUBSTRUCTURE
     1 22J         1 TEMP              0 ****  ****    0 ROOT
