@<TRIPOS>MOLECULE
22J
   25    25     1     0     0
SMALL
abcg2


@<TRIPOS>ATOM
      1 OA1          4.1330     1.1000     1.2000 o          1 22J      -0.692000
      2 CA1          4.3830     0.4860     0.1470 c          1 22J       0.652000
      3 OA2          5.3900     0.5440    -0.5680 o          1 22J      -0.692000
      4 CA2          3.2750    -0.4930    -0.3380 c          1 22J       0.405300
      5 OA3          3.4380    -1.1730    -1.3270 o          1 22J      -0.543100
      6 CA3          2.0260    -0.5500     0.4600 ce         1 22J      -0.216200
      7 CA4          1.0310    -1.3620     0.1120 c2         1 22J      -0.289200
      8 CA5         -0.2590    -1.4960     0.8460 c3         1 22J       0.141500
      9 FA5         -0.3100    -0.6730     1.9480 f          1 22J      -0.254000
     10 CA6         -1.4340    -1.2140    -0.0950 c          1 22J       0.570700
     11 OA4         -1.7800    -2.0840    -0.8560 o          1 22J      -0.503100
     12 CB1         -2.0840     0.1160    -0.0460 ca         1 22J      -0.202600
     13 CB6         -1.3380     1.2910     0.0770 ca         1 22J      -0.023000
     14 CB3         -1.9520     2.5300     0.0300 ca         1 22J      -0.138000
     15 CB4         -3.3320     2.6140    -0.1110 ca         1 22J      -0.069000
     16 CB5         -4.0980     1.4620    -0.2190 ca         1 22J      -0.179000
     17 CB2         -3.4620     0.2370    -0.1980 ca         1 22J       0.212000
     18 FB2         -4.2100    -0.8660    -0.2930 f          1 22J      -0.171000
     19 H3           1.9600     0.0900     1.3270 ha         1 22J       0.212000
     20 H5           1.1200    -2.0060    -0.7580 ha         1 22J       0.198000
     21 H6          -0.3750    -2.5320     1.1870 h1         1 22J       0.071700
     22 H7          -0.2620     1.2430     0.1720 ha         1 22J       0.149000
     23 H8          -1.3560     3.4290     0.1100 ha         1 22J       0.125000
     24 H9          -3.8190     3.5790    -0.1370 ha         1 22J       0.110000
     25 H10         -5.1730     1.5120    -0.3200 ha         1 22J       0.124000
@<TRIPOS>BOND
     1     1     2 1   
     2     2     3 1   
     3     2     4 1   
     4     4     5 2   
     5     4     6 1   
     6     6     7 2   
     7     6    19 1   
     8     7     8 1   
     9     7    20 1   
    10     8     9 1   
    11     8    10 1   
    12     8    21 1   
    13    10    11 2   
    14    10    12 1   
    15    12    13 ar  
    16    12    17 ar  
    17    13    14 ar  
    18    13    22 1   
    19    14    15 ar  
    20    14    23 1   
    21    15    16 ar  
    22    15    24 1   
    23    16    17 ar  
    24    16    25 1   
    25    17    18 1   
@<TRIPOS>SUBSTRUCTURE
     1 22J         1 TEMP              0 ****  ****    0 ROOT
