@<TRIPOS>MOLECULE
22K
   44    47     1     0     0
SMALL
abcg2


@<TRIPOS>ATOM
      1 C01          2.3830    -1.3410     0.1580 cc         1 22K      -0.187800
      2 C02          1.0190    -1.0590     0.1780 cd         1 22K       0.431500
      3 N03          0.3930    -2.2830     0.2340 na         1 22K       0.061900
      4 N04          1.2440    -3.3140     0.2560 nd         1 22K      -0.615100
      5 C05          2.4370    -2.7420     0.2090 cc         1 22K       0.409500
      6 N06          0.3340     0.0850     0.1510 nd         1 22K      -0.692000
      7 C07         -0.9790     0.0260     0.1640 cc         1 22K       0.471300
      8 C08         -1.6650    -1.2110     0.2050 cc         1 22K      -0.262900
      9 C09         -0.9610    -2.4110     0.2490 cd         1 22K       0.440000
     10 BR10        -3.5460    -1.3170     0.1850 br         1 22K      -0.084100
     11 N11         -1.4500    -3.6430     0.2960 nv         1 22K      -1.099000
     12 C12          3.4700    -0.3870     0.0870 cc         1 22K      -0.116800
     13 C13          3.4090     1.0200     0.1610 cc         1 22K       0.262900
     14 N14          4.6070     1.5630     0.0490 nd         1 22K      -0.529800
     15 N15          5.4460     0.5460    -0.0980 na         1 22K       0.130800
     16 C16          4.8180    -0.6430    -0.0800 cd         1 22K      -0.178000
     17 C17          6.8630     0.7830    -0.2250 c3         1 22K       0.075900
     18 C18         -1.7100     1.3390     0.0700 c6         1 22K      -0.116000
     19 C19         -0.9730     2.4830     0.7610 c6         1 22K      -0.063400
     20 C20         -1.7730     3.7770     0.6560 c6         1 22K       0.162500
     21 C21         -2.0070     4.1310    -0.8080 c6         1 22K      -0.076400
     22 C22         -2.7120     3.0000    -1.5470 c6         1 22K      -0.071400
     23 C23         -1.9580     1.6830    -1.4070 c6         1 22K      -0.070400
     24 N24         -1.0500     4.8530     1.3200 n8         1 22K      -0.994200
     25 H05          3.3190    -3.3650     0.2170 h4         1 22K       0.043800
     26 HN11        -0.8220    -4.4290     0.3430 hn         1 22K       0.523000
     27 HN1A        -2.4380    -3.8240     0.3360 hn         1 22K       0.523000
     28 H13          2.5320     1.6370     0.2850 h4         1 22K       0.055100
     29 H16          5.3600    -1.5680    -0.1940 h4         1 22K       0.147000
     30 H17          7.2770     1.1600     0.7080 h1         1 22K       0.053700
     31 H17A         7.3560    -0.1520    -0.4760 h1         1 22K       0.053700
     32 H17B         7.0520     1.5040    -1.0170 h1         1 22K       0.053700
     33 H18         -2.6850     1.2420     0.5580 hc         1 22K       0.064700
     34 H19         -0.8040     2.2340     1.8140 hc         1 22K       0.060700
     35 H19A         0.0110     2.6330     0.3080 hc         1 22K       0.060700
     36 H20         -2.7610     3.5940     1.1130 h1         1 22K       0.009700
     37 H21         -2.5960     5.0500    -0.8790 hc         1 22K       0.048200
     38 H21A        -1.0390     4.3380    -1.2780 hc         1 22K       0.048200
     39 H22         -3.7260     2.8800    -1.1510 hc         1 22K       0.040200
     40 H22A        -2.8210     3.2510    -2.6040 hc         1 22K       0.040200
     41 H23         -0.9920     1.7510    -1.9170 hc         1 22K       0.050200
     42 H23A        -2.5150     0.8800    -1.8980 hc         1 22K       0.050200
     43 HN24        -1.6080     5.6990     1.2900 hn         1 22K       0.392000
     44 HN2A        -0.9490     4.6330     2.3040 hn         1 22K       0.392000
@<TRIPOS>BOND
     1     1     2 2   
     2     1     5 1   
     3     1    12 1   
     4     2     3 1   
     5     2     6 1   
     6     3     4 1   
     7     3     9 1   
     8     4     5 2   
     9     5    25 1   
    10     6     7 2   
    11     7     8 1   
    12     7    18 1   
    13     8     9 2   
    14     8    10 1   
    15     9    11 1   
    16    11    26 1   
    17    11    27 1   
    18    12    13 1   
    19    12    16 2   
    20    13    14 2   
    21    13    28 1   
    22    14    15 1   
    23    15    16 1   
    24    15    17 1   
    25    16    29 1   
    26    17    30 1   
    27    17    31 1   
    28    17    32 1   
    29    18    19 1   
    30    18    23 1   
    31    18    33 1   
    32    19    20 1   
    33    19    34 1   
    34    19    35 1   
    35    20    21 1   
    36    20    24 1   
    37    20    36 1   
    38    21    22 1   
    39    21    37 1   
    40    21    38 1   
    41    22    23 1   
    42    22    39 1   
    43    22    40 1   
    44    23    41 1   
    45    23    42 1   
    46    24    43 1   
    47    24    44 1   
@<TRIPOS>SUBSTRUCTURE
     1 22K         1 TEMP              0 ****  ****    0 ROOT
