@<TRIPOS>MOLECULE
22K
   44    47     1     0     0
SMALL
No Charge or Current Charge


@<TRIPOS>ATOM
      1 C01          2.4110    -1.3410     0.0710 cc         1 22K      -0.187800
      2 C02          1.0700    -1.0930     0.0760 cd         1 22K       0.431500
      3 N03          0.4880    -2.3320     0.1240 na         1 22K       0.061900
      4 N04          1.3640    -3.4200     0.1580 nd         1 22K      -0.615100
      5 C05          2.5210    -2.7600     0.1210 cc         1 22K       0.409500
      6 N06          0.5040     0.1570     0.0490 nd         1 22K      -0.692000
      7 C07         -0.8270     0.0550     0.0840 cc         1 22K       0.471300
      8 C08         -1.5790    -1.2060     0.1220 cc         1 22K      -0.262900
      9 C09         -0.9050    -2.4180     0.1390 cd         1 22K       0.440000
     10 Br10        -3.4900    -1.2660     0.1320 br         1 22K      -0.084100
     11 N11         -1.4840    -3.6590     0.1730 nv         1 22K      -1.099000
     12 C12          3.5030    -0.3970     0.0280 cc         1 22K      -0.116800
     13 C13          3.4600     1.0100    -0.0210 cc         1 22K       0.262900
     14 N14          4.6540     1.5710    -0.0520 nd         1 22K      -0.529800
     15 N15          5.5050     0.4710    -0.0210 na         1 22K       0.130800
     16 C16          4.8190    -0.7480     0.0280 cd         1 22K      -0.178000
     17 C17          6.9630     0.6490    -0.0410 c3         1 22K       0.075900
     18 C18         -1.6530     1.3450     0.0570 c6         1 22K      -0.116000
     19 C19         -0.9110     2.5600     0.7060 c6         1 22K      -0.063400
     20 C20         -1.7920     3.8360     0.6710 c6         1 22K       0.162500
     21 C21         -2.2110     4.1770    -0.7820 c6         1 22K      -0.076400
     22 C22         -2.9290     2.9800    -1.4540 c6         1 22K      -0.071400
     23 C23         -2.0600     1.6990    -1.4040 c6         1 22K      -0.070400
     24 N24         -1.0880     4.9750     1.2860 n8         1 22K      -0.994200
     25 H05          3.4370    -3.3360     0.1330 h4         1 22K       0.043800
     26 HN11        -0.8660    -4.4430     0.3820 hn         1 22K       0.523000
     27 HN1A        -2.4480    -3.7400     0.4890 hn         1 22K       0.523000
     28 H13          2.5910     1.6540    -0.0360 h4         1 22K       0.055100
     29 H16          5.3130    -1.7110     0.0580 h4         1 22K       0.147000
     30 H17          7.2730     1.2380     0.8310 h1         1 22K       0.053700
     31 H17A         7.4570    -0.3300    -0.0100 h1         1 22K       0.053700
     32 H17B         7.2560     1.1730    -0.9580 h1         1 22K       0.053700
     33 H18         -2.5640     1.2180     0.6530 hc         1 22K       0.064700
     34 H19         -0.6450     2.3190     1.7440 hc         1 22K       0.060700
     35 H19A         0.0310     2.7610     0.1770 hc         1 22K       0.060700
     36 H20         -2.6990     3.6600     1.2690 h1         1 22K       0.009700
     37 H21         -2.8740     5.0530    -0.7890 hc         1 22K       0.048200
     38 H21A        -1.3250     4.4500    -1.3730 hc         1 22K       0.048200
     39 H22         -3.8890     2.7950    -0.9500 hc         1 22K       0.040200
     40 H22A        -3.1680     3.2280    -2.4970 hc         1 22K       0.040200
     41 H23         -1.1590     1.8410    -2.0180 hc         1 22K       0.050200
     42 H23A        -2.6120     0.8660    -1.8600 hc         1 22K       0.050200
     43 HN24        -1.7260     5.7780     1.3150 hn         1 22K       0.392000
     44 HN2A        -0.9260     4.7640     2.2770 hn         1 22K       0.392000
@<TRIPOS>BOND
     1     1     2 2   
     2     1     5 1   
     3     1    12 1   
     4     2     3 1   
     5     2     6 1   
     6     3     4 1   
     7     3     9 1   
     8     4     5 2   
     9     5    25 1   
    10     6     7 2   
    11     7     8 1   
    12     7    18 1   
    13     8     9 2   
    14     8    10 1   
    15     9    11 1   
    16    11    26 1   
    17    11    27 1   
    18    12    13 1   
    19    12    16 2   
    20    13    14 2   
    21    13    28 1   
    22    14    15 1   
    23    15    16 1   
    24    15    17 1   
    25    16    29 1   
    26    17    30 1   
    27    17    31 1   
    28    17    32 1   
    29    18    19 1   
    30    18    23 1   
    31    18    33 1   
    32    19    20 1   
    33    19    34 1   
    34    19    35 1   
    35    20    21 1   
    36    20    24 1   
    37    20    36 1   
    38    21    22 1   
    39    21    37 1   
    40    21    38 1   
    41    22    23 1   
    42    22    39 1   
    43    22    40 1   
    44    23    41 1   
    45    23    42 1   
    46    24    43 1   
    47    24    44 1   
@<TRIPOS>SUBSTRUCTURE
     1 22K         1 TEMP              0 ****  ****    0 ROOT
