@<TRIPOS>MOLECULE
22L
   24    26     1     0     0
SMALL
bcc


@<TRIPOS>ATOM
      1 C1           4.3830     0.2400    -0.0770 ca         1 22L      -0.121000
      2 C2           3.8700    -0.6900     0.8150 ca         1 22L      -0.132000
      3 C3           2.5090    -0.9630     0.8290 ca         1 22L      -0.100000
      4 C7           0.2110    -0.6550    -0.0570 cc         1 22L       0.018000
      5 C8          -0.2180    -1.9410    -0.1750 cd         1 22L      -0.135100
      6 C10         -2.1220    -0.3960    -0.0390 cd         1 22L       0.201300
      7 C11         -0.8980     0.2500     0.0290 cc         1 22L      -0.227600
      8 C12         -0.9020     1.6790     0.2430 c          1 22L       0.736100
      9 C15         -3.3250     1.4580     0.1760 cc         1 22L       0.500800
     10 C4           1.6440    -0.3080    -0.0460 ca         1 22L      -0.026000
     11 C5           2.1680     0.6250    -0.9400 ca         1 22L      -0.100000
     12 C6           3.5280     0.8950    -0.9560 ca         1 22L      -0.132000
     13 S9          -1.9310    -2.0970    -0.1970 ss         1 22L      -0.009800
     14 O13          0.0590     2.4100     0.3920 o          1 22L      -0.598500
     15 N14         -2.1960     2.1890     0.2780 ns         1 22L      -0.489400
     16 N16         -3.3450     0.1770     0.0250 nd         1 22L      -0.598100
     17 H1           5.4440     0.4560    -0.0890 ha         1 22L       0.129000
     18 H2           4.5270    -1.2040     1.5060 ha         1 22L       0.130500
     19 H3           2.1100    -1.6830     1.5330 ha         1 22L       0.133000
     20 H4           0.3990    -2.8210    -0.2780 h4         1 22L       0.175000
     21 H5          -4.2520     2.0120     0.2320 h5         1 22L       0.050800
     22 H6           1.5150     1.1290    -1.6390 ha         1 22L       0.133000
     23 H7           3.9240     1.6150    -1.6610 ha         1 22L       0.130500
     24 H8          -2.2900     3.1890     0.4110 hn         1 22L       0.331500
@<TRIPOS>BOND
     1     1     2 ar  
     2     1    12 ar  
     3     1    17 1   
     4     2     3 ar  
     5     2    18 1   
     6     3    10 ar  
     7     3    19 1   
     8     4     5 2   
     9     4     7 1   
    10     4    10 1   
    11     5    13 1   
    12     5    20 1   
    13     6     7 2   
    14     6    13 1   
    15     6    16 1   
    16     7     8 1   
    17     8    14 2   
    18     8    15 1   
    19     9    15 1   
    20     9    16 2   
    21     9    21 1   
    22    10    11 ar  
    23    11    12 ar  
    24    11    22 1   
    25    12    23 1   
    26    15    24 1   
@<TRIPOS>SUBSTRUCTURE
     1 22L         1 TEMP              0 ****  ****    0 ROOT
