@<TRIPOS>MOLECULE
22L
   24    26     1     0     0
SMALL
No Charge or Current Charge


@<TRIPOS>ATOM
      1 C1           4.3970     0.2250    -0.1590 ca         1 22L      -0.103000
      2 C2           3.9470    -0.8580     0.6120 ca         1 22L      -0.114000
      3 C3           2.5710    -1.1270     0.7150 ca         1 22L      -0.082000
      4 C7           0.1820    -0.6170     0.1620 cc         1 22L       0.018000
      5 C8          -0.1500    -1.9530     0.0830 cd         1 22L      -0.262000
      6 C10         -2.1390    -0.4580    -0.0040 cd         1 22L       0.056400
      7 C11         -0.9630     0.2500     0.1080 cc         1 22L      -0.227600
      8 C12         -0.9620     1.7190     0.2370 c          1 22L       0.593600
      9 C15         -3.3460     1.5050    -0.0280 cc         1 22L       0.500800
     10 C4           1.6200    -0.3080     0.0630 ca         1 22L      -0.026000
     11 C5           2.0920     0.7630    -0.7280 ca         1 22L      -0.082000
     12 C6           3.4680     1.0310    -0.8340 ca         1 22L      -0.114000
     13 S9          -1.8980    -2.2130    -0.0260 ss         1 22L       0.280000
     14 O13          0.0020     2.4340     0.4540 o          1 22L      -0.523000
     15 N14         -2.2040     2.2400     0.1320 ns         1 22L      -0.422400
     16 N16         -3.3850     0.1720    -0.0820 nd         1 22L      -0.598100
     17 H1           5.4620     0.4320    -0.2420 ha         1 22L       0.111000
     18 H2           4.6640    -1.4890     1.1320 ha         1 22L       0.112500
     19 H3           2.2450    -1.9630     1.3290 ha         1 22L       0.115000
     20 H4           0.5100    -2.8090     0.0270 h4         1 22L       0.157000
     21 H5          -4.2360     2.1200    -0.0840 h5         1 22L       0.050800
     22 H6           1.3970     1.3690    -1.3010 ha         1 22L       0.115000
     23 H7           3.8130     1.8580    -1.4510 ha         1 22L       0.112500
     24 H8          -2.2750     3.2440     0.2020 hn         1 22L       0.331500
@<TRIPOS>BOND
     1     1     2 ar  
     2     1    12 ar  
     3     1    17 1   
     4     2     3 ar  
     5     2    18 1   
     6     3    10 ar  
     7     3    19 1   
     8     4     5 2   
     9     4     7 1   
    10     4    10 1   
    11     5    13 1   
    12     5    20 1   
    13     6     7 2   
    14     6    13 1   
    15     6    16 1   
    16     7     8 1   
    17     8    14 2   
    18     8    15 1   
    19     9    15 1   
    20     9    16 2   
    21     9    21 1   
    22    10    11 ar  
    23    11    12 ar  
    24    11    22 1   
    25    12    23 1   
    26    15    24 1   
@<TRIPOS>SUBSTRUCTURE
     1 22L         1 TEMP              0 ****  ****    0 ROOT
