@<TRIPOS>MOLECULE
22M
   34    36     1     0     0
SMALL
abcg2


@<TRIPOS>ATOM
      1 C1          -3.2350    -1.2880     0.6310 ca         1 22M      -0.125000
      2 C2          -3.3490     0.0010     0.0680 ca         1 22M      -0.134900
      3 C3          -4.6790     0.6210    -0.1770 ce         1 22M       0.661800
      4 N4          -4.7780     1.8960    -0.1840 n2         1 22M      -0.833100
      5 N5          -5.7130    -0.2610    -0.3370 nv         1 22M      -1.073200
      6 C6          -2.2100     0.7200    -0.2630 ca         1 22M      -0.073000
      7 C7          -0.9760     0.1230    -0.0410 ca         1 22M      -0.059200
      8 C8          -0.8460    -1.1720     0.5100 ca         1 22M      -0.085800
      9 C9          -2.0060    -1.8720     0.8560 ca         1 22M      -0.070000
     10 C10          0.5490    -1.4530     0.5740 cc         1 22M      -0.232200
     11 C11          1.2070    -0.3550     0.0800 cd         1 22M      -0.001300
     12 C12          2.6500    -0.1550    -0.0860 ca         1 22M      -0.047800
     13 C13          3.3880    -1.1780    -0.6840 ca         1 22M      -0.086000
     14 C14          4.7580    -1.0670    -0.8570 ca         1 22M      -0.115000
     15 C15          5.4070     0.0810    -0.4290 ca         1 22M      -0.098000
     16 C16          4.6820     1.0970     0.1750 ca         1 22M      -0.114000
     17 C17          3.3050     1.0040     0.3620 ca         1 22M      -0.059300
     18 C18          2.5800     2.1200     1.0620 c3         1 22M      -0.052800
     19 N19          0.2840     0.5910    -0.2810 na         1 22M      -0.212700
     20 H1          -4.1280    -1.8290     0.9160 ha         1 22M       0.116000
     21 HN4         -5.7250     2.1880    -0.4110 hn         1 22M       0.368400
     22 HN51        -5.5060    -1.1680    -0.7230 hn         1 22M       0.458500
     23 HN52        -6.5910     0.1170    -0.6550 hn         1 22M       0.458500
     24 H6          -2.2920     1.7100    -0.6920 ha         1 22M       0.136000
     25 H9          -1.9460    -2.8590     1.2980 ha         1 22M       0.116000
     26 H10          1.0180    -2.3440     0.9600 ha         1 22M       0.207000
     27 H13          2.8730    -2.0640    -1.0340 ha         1 22M       0.120000
     28 H14          5.3100    -1.8700    -1.3270 ha         1 22M       0.116000
     29 H15          6.4770     0.1860    -0.5590 ha         1 22M       0.115000
     30 H16          5.1990     1.9830     0.5260 ha         1 22M       0.113000
     31 H181         2.0430     2.7650     0.3640 hc         1 22M       0.045700
     32 H182         1.8520     1.7450     1.7820 hc         1 22M       0.045700
     33 H183         3.2830     2.7530     1.6010 hc         1 22M       0.045700
     34 HN19         0.4980     1.4580    -0.7470 hn         1 22M       0.352000
@<TRIPOS>BOND
     1     1     2 ar  
     2     1     9 ar  
     3     1    20 1   
     4     2     3 1   
     5     2     6 ar  
     6     3     4 2   
     7     3     5 1   
     8     4    21 1   
     9     5    22 1   
    10     5    23 1   
    11     6     7 ar  
    12     6    24 1   
    13     7     8 ar  
    14     7    19 1   
    15     8     9 ar  
    16     8    10 1   
    17     9    25 1   
    18    10    11 2   
    19    10    26 1   
    20    11    12 1   
    21    11    19 1   
    22    12    13 ar  
    23    12    17 ar  
    24    13    14 ar  
    25    13    27 1   
    26    14    15 ar  
    27    14    28 1   
    28    15    16 ar  
    29    15    29 1   
    30    16    17 ar  
    31    16    30 1   
    32    17    18 1   
    33    18    31 1   
    34    18    32 1   
    35    18    33 1   
    36    19    34 1   
@<TRIPOS>SUBSTRUCTURE
     1 22M         1 TEMP              0 ****  ****    0 ROOT
