@<TRIPOS>MOLECULE
22M
   34    36     1     0     0
SMALL
No Charge or Current Charge


@<TRIPOS>ATOM
      1 C1          -3.2910    -1.4670     0.0920 ca         1 22M      -0.125000
      2 C2          -3.4340    -0.0470     0.1310 ca         1 22M      -0.134900
      3 C3          -4.7870     0.6030     0.2040 ce         1 22M       0.661800
      4 N4          -4.9630     1.8140     0.5430 n2         1 22M      -0.833100
      5 N5          -5.8620    -0.1060    -0.2040 nv         1 22M      -1.073200
      6 C6          -2.2600     0.7540     0.1580 ca         1 22M      -0.073000
      7 C7          -1.0080     0.1240     0.1140 ca         1 22M      -0.059200
      8 C8          -0.8970    -1.2280     0.0600 ca         1 22M      -0.085800
      9 C9          -2.0150    -2.0670     0.0500 ca         1 22M      -0.070000
     10 C10          0.4980    -1.5340     0.0320 cc         1 22M      -0.232200
     11 C11          1.2040    -0.3290     0.0700 cd         1 22M      -0.001300
     12 C12          2.6920    -0.1710     0.0600 ca         1 22M      -0.047800
     13 C13          3.4910    -1.3420     0.0100 ca         1 22M      -0.086000
     14 C14          4.8920    -1.2790    -0.0030 ca         1 22M      -0.115000
     15 C15          5.5380    -0.0410     0.0340 ca         1 22M      -0.098000
     16 C16          4.7780     1.1330     0.0840 ca         1 22M      -0.114000
     17 C17          3.3660     1.0920     0.0970 ca         1 22M      -0.059300
     18 C18          2.6470     2.4390     0.1520 c3         1 22M      -0.052800
     19 N19          0.2440     0.7150     0.1230 na         1 22M      -0.212700
     20 H1          -4.1650    -2.1140     0.1060 ha         1 22M       0.116000
     21 HN4         -5.9660     1.9520     0.7080 hn         1 22M       0.368400
     22 HN51        -5.6410    -0.9440    -0.7290 hn         1 22M       0.458500
     23 HN52        -6.6430     0.4310    -0.5610 hn         1 22M       0.458500
     24 H6          -2.3230     1.8390     0.2050 ha         1 22M       0.136000
     25 H9          -1.9040    -3.1490     0.0190 ha         1 22M       0.116000
     26 H10          0.9200    -2.5330    -0.0120 ha         1 22M       0.207000
     27 H13          3.0390    -2.3270    -0.0200 ha         1 22M       0.120000
     28 H14          5.4770    -2.1960    -0.0420 ha         1 22M       0.116000
     29 H15          6.6250     0.0100     0.0250 ha         1 22M       0.115000
     30 H16          5.2970     2.0880     0.1130 ha         1 22M       0.113000
     31 H181         2.0120     2.5880    -0.7290 hc         1 22M       0.045700
     32 H182         2.0350     2.5280     1.0570 hc         1 22M       0.045700
     33 H183         3.3520     3.2790     0.1710 hc         1 22M       0.045700
     34 HN19         0.4380     1.7080     0.1610 hn         1 22M       0.352000
@<TRIPOS>BOND
     1     1     2 ar  
     2     1     9 ar  
     3     1    20 1   
     4     2     3 1   
     5     2     6 ar  
     6     3     4 2   
     7     3     5 1   
     8     4    21 1   
     9     5    22 1   
    10     5    23 1   
    11     6     7 ar  
    12     6    24 1   
    13     7     8 ar  
    14     7    19 1   
    15     8     9 ar  
    16     8    10 1   
    17     9    25 1   
    18    10    11 2   
    19    10    26 1   
    20    11    12 1   
    21    11    19 1   
    22    12    13 ar  
    23    12    17 ar  
    24    13    14 ar  
    25    13    27 1   
    26    14    15 ar  
    27    14    28 1   
    28    15    16 ar  
    29    15    29 1   
    30    16    17 ar  
    31    16    30 1   
    32    17    18 1   
    33    18    31 1   
    34    18    32 1   
    35    18    33 1   
    36    19    34 1   
@<TRIPOS>SUBSTRUCTURE
     1 22M         1 TEMP              0 ****  ****    0 ROOT
