@<TRIPOS>MOLECULE
22N
   43    43     1     0     0
SMALL
bcc


@<TRIPOS>ATOM
      1 C1          -3.1530     1.5820     0.4770 c          1 22N       0.917800
      2 O1A         -2.8310     2.7590     0.7350 o          1 22N      -0.826800
      3 O1B         -4.2800     1.0700     0.6330 o          1 22N      -0.826800
      4 C2          -2.0750     0.6560    -0.0730 ce         1 22N      -0.156400
      5 C3          -2.4750    -0.7480    -0.4330 c6         1 22N      -0.039200
      6 C4          -1.3890    -1.5040    -1.1900 c6         1 22N       0.139500
      7 C5          -0.0200    -1.2570    -0.5520 c6         1 22N       0.121700
      8 N5           0.0090    -1.6540     0.8340 ns         1 22N      -0.526900
      9 C10          0.7060    -2.6950     1.3100 c          1 22N       0.680100
     10 O10          1.4040    -3.4230     0.6130 o          1 22N      -0.651100
     11 C11          0.5880    -2.9170     2.7990 c3         1 22N      -0.176100
     12 C6           0.3140     0.2250    -0.7050 c6         1 22N       0.171300
     13 C7          -0.8160     1.0780    -0.1970 c2         1 22N      -0.250200
     14 O7           1.5200     0.4940    -0.0280 os         1 22N      -0.410600
     15 C8           2.3330     1.5210    -0.5740 c3         1 22N       0.155100
     16 C9           2.8970     2.3560     0.5700 c3         1 22N      -0.084900
     17 C81          3.4640     0.9340    -1.4170 c3         1 22N      -0.084900
     18 C82          3.0240     0.0930    -2.6080 c3         1 22N      -0.086600
     19 C91          1.8460     3.0800     1.3970 c3         1 22N      -0.086600
     20 N4          -1.6910    -2.9240    -1.2000 n8         1 22N      -0.879800
     21 H2          -2.7400    -1.3050     0.4730 hc         1 22N       0.062200
     22 H3          -3.3880    -0.7280    -1.0340 hc         1 22N       0.062200
     23 H4          -1.3300    -1.0800    -2.2050 h1         1 22N       0.011700
     24 H5           0.7360    -1.8450    -1.0750 h1         1 22N       0.067700
     25 H6          -0.5260    -1.1020     1.4860 hn         1 22N       0.329500
     26 H7          -0.1140    -2.2460     3.2890 hc         1 22N       0.050700
     27 H8           0.2740    -3.9430     2.9890 hc         1 22N       0.050700
     28 H9           1.5670    -2.7870     3.2610 hc         1 22N       0.050700
     29 H10          0.4370     0.4150    -1.7810 h1         1 22N       0.027700
     30 H11         -0.5810     2.1020     0.0750 ha         1 22N       0.149000
     31 H12          1.7250     2.1790    -1.2140 h1         1 22N       0.039700
     32 H13          3.5030     1.7130     1.2160 hc         1 22N       0.033450
     33 H14          3.5860     3.0870     0.1370 hc         1 22N       0.033450
     34 H15          4.0740     1.7680    -1.7750 hc         1 22N       0.033450
     35 H16          4.1130     0.3380    -0.7670 hc         1 22N       0.033450
     36 H17          2.5060    -0.8150    -2.2990 hc         1 22N       0.035033
     37 H18          2.3600     0.6490    -3.2730 hc         1 22N       0.035033
     38 H19          3.8890    -0.2180    -3.1950 hc         1 22N       0.035033
     39 H20          1.2420     3.7440     0.7750 hc         1 22N       0.035033
     40 H21          1.1710     2.3820     1.8910 hc         1 22N       0.035033
     41 H22          2.3140     3.6920     2.1690 hc         1 22N       0.035033
     42 H23         -2.6020    -3.0650    -1.6210 hn         1 22N       0.329800
     43 H24         -1.0360    -3.4060    -1.8040 hn         1 22N       0.329800
@<TRIPOS>BOND
     1     1     2 1   
     2     1     3 1   
     3     1     4 1   
     4     4     5 1   
     5     4    13 2   
     6     5     6 1   
     7     5    21 1   
     8     5    22 1   
     9     6     7 1   
    10     6    20 1   
    11     6    23 1   
    12     7     8 1   
    13     7    12 1   
    14     7    24 1   
    15     8     9 1   
    16     8    25 1   
    17     9    10 2   
    18     9    11 1   
    19    11    26 1   
    20    11    27 1   
    21    11    28 1   
    22    12    13 1   
    23    12    14 1   
    24    12    29 1   
    25    13    30 1   
    26    14    15 1   
    27    15    16 1   
    28    15    17 1   
    29    15    31 1   
    30    16    19 1   
    31    16    32 1   
    32    16    33 1   
    33    17    18 1   
    34    17    34 1   
    35    17    35 1   
    36    18    36 1   
    37    18    37 1   
    38    18    38 1   
    39    19    39 1   
    40    19    40 1   
    41    19    41 1   
    42    20    42 1   
    43    20    43 1   
@<TRIPOS>SUBSTRUCTURE
     1 22N         1 TEMP              0 ****  ****    0 ROOT
