@<TRIPOS>MOLECULE
22N
   43    43     1     0     0
SMALL
No Charge or Current Charge


@<TRIPOS>ATOM
      1 C1          -3.1060     1.6790     0.2940 c          1 22N       0.707200
      2 O1A         -2.7960     2.8490     0.4690 o          1 22N      -0.721500
      3 O1B         -4.2450     1.2700     0.4700 o          1 22N      -0.721500
      4 C2          -2.0330     0.6990    -0.1530 ce         1 22N      -0.156400
      5 C3          -2.4710    -0.7650    -0.3770 c6         1 22N      -0.039200
      6 C4          -1.4180    -1.6030    -1.1500 c6         1 22N       0.139500
      7 C5           0.0160    -1.3660    -0.5740 c6         1 22N       0.121700
      8 N5           0.1170    -1.6920     0.8670 ns         1 22N      -0.459900
      9 C10          0.2410    -2.9410     1.4170 c          1 22N       0.613100
     10 O10          0.2310    -3.9620     0.7430 o          1 22N      -0.651100
     11 C11          0.3850    -2.9610     2.9340 c3         1 22N      -0.176100
     12 C6           0.3730     0.1290    -0.8170 c6         1 22N       0.194500
     13 C7          -0.7340     1.0690    -0.3440 c2         1 22N      -0.300200
     14 O7           1.6110     0.4620    -0.1490 os         1 22N      -0.457000
     15 C8           2.3520     1.6100    -0.6130 c3         1 22N       0.178300
     16 C9           2.9520     2.3010     0.6360 c3         1 22N      -0.084900
     17 C81          3.4590     1.1380    -1.5970 c3         1 22N      -0.084900
     18 C82          2.9650     0.5070    -2.9160 c3         1 22N      -0.086600
     19 C91          1.8980     2.8570     1.6180 c3         1 22N      -0.086600
     20 N4          -1.7980    -3.0360    -1.1650 n8         1 22N      -0.990200
     21 H2          -2.6740    -1.2260     0.5990 hc         1 22N       0.062200
     22 H3          -3.4180    -0.7930    -0.9320 hc         1 22N       0.062200
     23 H4          -1.4340    -1.2720    -2.2000 h1         1 22N       0.011700
     24 H5           0.7390    -1.9850    -1.1230 h1         1 22N       0.067700
     25 H6           0.1640    -0.9120     1.5100 hn         1 22N       0.329500
     26 H7          -0.4600    -2.4240     3.3800 hc         1 22N       0.050700
     27 H8           0.4770    -3.9750     3.3380 hc         1 22N       0.050700
     28 H9           1.2360    -2.3320     3.2200 hc         1 22N       0.050700
     29 H10          0.4980     0.2730    -1.8990 h1         1 22N       0.027700
     30 H11         -0.4320     2.1020    -0.1800 ha         1 22N       0.199000
     31 H12          1.6970     2.3280    -1.1270 h1         1 22N       0.039700
     32 H13          3.6000     1.5940     1.1690 hc         1 22N       0.033450
     33 H14          3.5920     3.1300     0.3110 hc         1 22N       0.033450
     34 H15          4.0830     2.0020    -1.8520 hc         1 22N       0.033450
     35 H16          4.1160     0.4230    -1.0860 hc         1 22N       0.033450
     36 H17          2.4870    -0.4630    -2.7340 hc         1 22N       0.035033
     37 H18          2.2480     1.1670    -3.4190 hc         1 22N       0.035033
     38 H19          3.8090     0.3400    -3.5940 hc         1 22N       0.035033
     39 H20          1.2510     3.5880     1.1180 hc         1 22N       0.035033
     40 H21          1.2690     2.0520     2.0180 hc         1 22N       0.035033
     41 H22          2.3890     3.3560     2.4620 hc         1 22N       0.035033
     42 H23         -1.4430    -3.4610    -2.0280 hn         1 22N       0.385000
     43 H24         -1.2380    -3.5040    -0.4350 hn         1 22N       0.385000
@<TRIPOS>BOND
     1     1     2 1   
     2     1     3 1   
     3     1     4 1   
     4     4     5 1   
     5     4    13 2   
     6     5     6 1   
     7     5    21 1   
     8     5    22 1   
     9     6     7 1   
    10     6    20 1   
    11     6    23 1   
    12     7     8 1   
    13     7    12 1   
    14     7    24 1   
    15     8     9 1   
    16     8    25 1   
    17     9    10 2   
    18     9    11 1   
    19    11    26 1   
    20    11    27 1   
    21    11    28 1   
    22    12    13 1   
    23    12    14 1   
    24    12    29 1   
    25    13    30 1   
    26    14    15 1   
    27    15    16 1   
    28    15    17 1   
    29    15    31 1   
    30    16    19 1   
    31    16    32 1   
    32    16    33 1   
    33    17    18 1   
    34    17    34 1   
    35    17    35 1   
    36    18    36 1   
    37    18    37 1   
    38    18    38 1   
    39    19    39 1   
    40    19    40 1   
    41    19    41 1   
    42    20    42 1   
    43    20    43 1   
@<TRIPOS>SUBSTRUCTURE
     1 22N         1 TEMP              0 ****  ****    0 ROOT
