@<TRIPOS>MOLECULE
22O
   42    43     1     0     0
SMALL
bcc


@<TRIPOS>ATOM
      1 C1          -2.6460    -0.4130     0.5200 c6         1 22O       0.276500
      2 N1          -1.3950    -1.0960     0.4980 ns         1 22O      -0.495900
      3 S1          -2.5010    -3.5300     0.7140 s          1 22O      -0.609400
      4 BR1          4.3020     2.3410    -0.1780 br         1 22O      -0.089100
      5 C2          -2.5240     0.9060     1.2860 c6         1 22O       0.078100
      6 N2           0.0070    -2.8870     0.3860 ns         1 22O      -0.294900
      7 O2          -2.2250     0.6920     2.6410 oh         1 22O      -0.590800
      8 C3          -3.8640     1.6270     1.2200 c6         1 22O       0.115100
      9 N3           1.0400    -2.0460     0.2340 n2         1 22O      -0.483300
     10 O3          -3.7970     2.9190     1.7740 oh         1 22O      -0.602800
     11 C4          -4.3350     1.7730    -0.2230 c6         1 22O       0.119100
     12 O4          -5.6420     2.2860    -0.2810 oh         1 22O      -0.591800
     13 C5          -4.3240     0.4070    -0.9100 c6         1 22O       0.156100
     14 O5          -3.0350    -0.1620    -0.8070 os         1 22O      -0.407600
     15 C6          -4.6700     0.5130    -2.3800 c3         1 22O       0.149400
     16 O6          -4.7130    -0.7800    -2.9320 oh         1 22O      -0.580800
     17 C7          -1.2580    -2.4280     0.5200 cs         1 22O       0.627400
     18 C8           2.2040    -2.5430     0.1040 ce         1 22O       0.409800
     19 C9           3.3770    -1.6920    -0.0610 ca         1 22O      -0.135900
     20 C10          4.6200    -2.2950    -0.2400 ca         1 22O      -0.096000
     21 C11          5.7580    -1.5190    -0.4030 ca         1 22O      -0.129000
     22 C12          5.6740    -0.1350    -0.3880 ca         1 22O      -0.086000
     23 C13          4.4290     0.4570    -0.2050 ca         1 22O      -0.025900
     24 C14          3.2830    -0.2980    -0.0420 ca         1 22O      -0.068000
     25 H1          -3.3760    -1.0600     1.0200 h2         1 22O       0.106700
     26 HN1         -0.5600    -0.5570     0.2980 hn         1 22O       0.333500
     27 H2          -1.7600     1.5300     0.7960 h1         1 22O       0.053700
     28 HN2          0.1470    -3.8920     0.4060 hn         1 22O       0.350500
     29 HO2         -1.2920     0.4740     2.7290 ho         1 22O       0.418000
     30 H3          -4.6040     1.0110     1.7560 h1         1 22O       0.060700
     31 HO3         -3.6860     2.8390     2.7270 ho         1 22O       0.427000
     32 H4          -3.6270     2.4320    -0.7530 h1         1 22O       0.052700
     33 HO4         -5.6540     3.1270     0.1880 ho         1 22O       0.427000
     34 H5          -5.0630    -0.2430    -0.4130 h1         1 22O       0.071700
     35 H6          -5.6330     1.0250    -2.4700 h1         1 22O       0.035200
     36 H6A         -3.9200     1.1460    -2.8770 h1         1 22O       0.035200
     37 HO6         -5.0140    -0.7030    -3.8410 ho         1 22O       0.404000
     38 H8           2.3730    -3.6210     0.1100 h4         1 22O      -0.003200
     39 H10          4.6980    -3.3750    -0.2530 ha         1 22O       0.137000
     40 H11          6.7200    -1.9910    -0.5450 ha         1 22O       0.142000
     41 H12          6.5640     0.4650    -0.5180 ha         1 22O       0.152000
     42 H14          2.3210     0.1750     0.1040 ha         1 22O       0.156000
@<TRIPOS>BOND
     1     1     2 1   
     2     1     5 1   
     3     1    14 1   
     4     1    25 1   
     5     2    17 1   
     6     2    26 1   
     7     3    17 2   
     8     4    23 1   
     9     5     7 1   
    10     5     8 1   
    11     5    27 1   
    12     6     9 1   
    13     6    17 1   
    14     6    28 1   
    15     7    29 1   
    16     8    10 1   
    17     8    11 1   
    18     8    30 1   
    19     9    18 2   
    20    10    31 1   
    21    11    12 1   
    22    11    13 1   
    23    11    32 1   
    24    12    33 1   
    25    13    14 1   
    26    13    15 1   
    27    13    34 1   
    28    15    16 1   
    29    15    35 1   
    30    15    36 1   
    31    16    37 1   
    32    18    19 1   
    33    18    38 1   
    34    19    20 ar  
    35    19    24 ar  
    36    20    21 ar  
    37    20    39 1   
    38    21    22 ar  
    39    21    40 1   
    40    22    23 ar  
    41    22    41 1   
    42    23    24 ar  
    43    24    42 1   
@<TRIPOS>SUBSTRUCTURE
     1 22O         1 TEMP              0 ****  ****    0 ROOT
