@<TRIPOS>MOLECULE
22O
   42    43     1     0     0
SMALL
No Charge or Current Charge


@<TRIPOS>ATOM
      1 C1          -2.6320    -0.5040     0.8110 c6         1 22O       0.299700
      2 N1          -1.4530    -1.3290     1.0420 ns         1 22O      -0.428900
      3 S1          -2.7700    -3.6670     1.1630 s          1 22O      -0.609400
      4 Br1          5.1930     1.1060     2.2890 br         1 22O      -0.089100
      5 C2          -2.4140     0.9630     1.3160 c6         1 22O       0.101300
      6 N2          -0.1330    -3.1980     1.1910 ns         1 22O      -0.227900
      7 O2          -2.2290     1.0350     2.7500 oh         1 22O      -0.713000
      8 C3          -3.6440     1.8240     0.9080 c6         1 22O       0.138300
      9 N3           1.0320    -2.4390     1.1460 n2         1 22O      -0.483300
     10 O3          -3.4560     3.1860     1.3280 oh         1 22O      -0.665000
     11 C4          -3.8800     1.7460    -0.6280 c6         1 22O       0.142300
     12 O4          -5.0430     2.5200    -0.9790 oh         1 22O      -0.714000
     13 C5          -4.0130     0.2490    -1.0510 c6         1 22O       0.179300
     14 O5          -2.8370    -0.4880    -0.6170 os         1 22O      -0.454000
     15 C6          -4.1610     0.0800    -2.6000 c3         1 22O       0.172600
     16 O6          -4.2380    -1.2970    -3.0240 oh         1 22O      -0.703000
     17 C7          -1.4120    -2.6910     1.1130 cs         1 22O       0.493400
     18 C8           1.6930    -2.3550     0.0300 ce         1 22O       0.409800
     19 C9           2.8990    -1.4840    -0.1090 ca         1 22O      -0.135900
     20 C10          3.5570    -1.4070    -1.3550 ca         1 22O      -0.078000
     21 C11          4.6910    -0.5910    -1.5150 ca         1 22O      -0.111000
     22 C12          5.1800     0.1570    -0.4320 ca         1 22O      -0.068000
     23 C13          4.5310     0.0870     0.8120 ca         1 22O      -0.025900
     24 C14          3.3970    -0.7270     0.9760 ca         1 22O      -0.050000
     25 H1          -3.5040    -0.9500     1.3170 h2         1 22O       0.106700
     26 HN1         -0.5470    -0.8800     1.0100 hn         1 22O       0.333500
     27 H2          -1.5270     1.3690     0.8050 h1         1 22O       0.053700
     28 HN2         -0.0840    -4.2110     1.2920 hn         1 22O       0.350500
     29 HO2         -1.4660     0.4550     2.9860 ho         1 22O       0.517000
     30 H3          -4.5280     1.4030     1.4110 h1         1 22O       0.060700
     31 HO3         -3.0140     3.1140     2.2070 ho         1 22O       0.466000
     32 H4          -2.9940     2.1620    -1.1320 h1         1 22O       0.052700
     33 HO4         -4.9840     3.3320    -0.4170 ho         1 22O       0.526000
     34 H5          -4.9030    -0.1890    -0.5740 h1         1 22O       0.071700
     35 H6          -5.0640     0.6180    -2.9190 h1         1 22O       0.035200
     36 H6A         -3.3040     0.5740    -3.0780 h1         1 22O       0.035200
     37 HO6         -4.2620    -1.2930    -4.0090 ho         1 22O       0.503000
     38 H8           1.3740    -2.9020    -0.8600 h4         1 22O      -0.003200
     39 H10          3.1880    -1.9810    -2.2040 ha         1 22O       0.119000
     40 H11          5.1910    -0.5390    -2.4800 ha         1 22O       0.124000
     41 H12          6.0570     0.7880    -0.5560 ha         1 22O       0.134000
     42 H14          2.9100    -0.7670     1.9480 ha         1 22O       0.138000
@<TRIPOS>BOND
     1     1     2 1   
     2     1     5 1   
     3     1    14 1   
     4     1    25 1   
     5     2    17 1   
     6     2    26 1   
     7     3    17 2   
     8     4    23 1   
     9     5     7 1   
    10     5     8 1   
    11     5    27 1   
    12     6     9 1   
    13     6    17 1   
    14     6    28 1   
    15     7    29 1   
    16     8    10 1   
    17     8    11 1   
    18     8    30 1   
    19     9    18 2   
    20    10    31 1   
    21    11    12 1   
    22    11    13 1   
    23    11    32 1   
    24    12    33 1   
    25    13    14 1   
    26    13    15 1   
    27    13    34 1   
    28    15    16 1   
    29    15    35 1   
    30    15    36 1   
    31    16    37 1   
    32    18    19 1   
    33    18    38 1   
    34    19    20 ar  
    35    19    24 ar  
    36    20    21 ar  
    37    20    39 1   
    38    21    22 ar  
    39    21    40 1   
    40    22    23 ar  
    41    22    41 1   
    42    23    24 ar  
    43    24    42 1   
@<TRIPOS>SUBSTRUCTURE
     1 22O         1 TEMP              0 ****  ****    0 ROOT
