@<TRIPOS>MOLECULE
22P
   29    29     1     0     0
SMALL
abcg2


@<TRIPOS>ATOM
      1 O5          -2.0570     1.4100     0.8910 oh         1 22P      -0.627000
      2 O6          -2.8020    -0.9520     1.6770 o          1 22P      -0.716000
      3 N9          -4.0910     0.7710    -1.0360 n8         1 22P      -0.959200
      4 C20         -1.8580     0.3890    -0.0730 c3         1 22P       0.028000
      5 C21         -2.6680     0.7110    -1.3310 c3         1 22P       0.144800
      6 C22         -0.3740     0.2900    -0.4430 c3         1 22P      -0.072400
      7 C23          1.9920     0.0020     0.3450 ca         1 22P      -0.050300
      8 C24          2.8050     1.0800     0.6860 ca         1 22P      -0.113000
      9 C25          4.1370     1.1250     0.2940 ca         1 22P      -0.120000
     10 C26          4.6790     0.0870    -0.4520 ca         1 22P      -0.135000
     11 C27          3.8790    -0.9940    -0.8000 ca         1 22P      -0.120000
     12 C28          2.5490    -1.0340    -0.4040 ca         1 22P      -0.113000
     13 C29         -2.3460    -0.9530     0.5220 c          1 22P       0.748000
     14 C52          0.5420    -0.0310     0.7410 c3         1 22P      -0.035100
     15 HO5         -1.7000     2.2250     0.5200 ho         1 22P       0.383000
     16 HN9         -4.2550     1.5050    -0.3590 hn         1 22P       0.372500
     17 HN9A        -4.5940     1.0480    -1.8690 hn         1 22P       0.372500
     18 H21         -2.4960    -0.0720    -2.0710 h1         1 22P       0.008700
     19 H21A        -2.2730     1.6440    -1.7670 h1         1 22P       0.008700
     20 H22         -0.2480    -0.4720    -1.2140 hc         1 22P       0.025200
     21 H22A        -0.0540     1.2380    -0.8930 hc         1 22P       0.025200
     22 H24          2.3900     1.8960     1.2670 ha         1 22P       0.117000
     23 H25          4.7530     1.9700     0.5760 ha         1 22P       0.097000
     24 H26          5.7170     0.1200    -0.7580 ha         1 22P       0.094000
     25 H27          4.2930    -1.8100    -1.3790 ha         1 22P       0.097000
     26 H28          1.9350    -1.8840    -0.6810 ha         1 22P       0.117000
     27 OXT         -2.2160    -1.9400    -0.2310 o          1 22P      -0.716000
     28 H52          0.3670     0.6860     1.5440 hc         1 22P       0.068200
     29 H52A         0.2930    -1.0190     1.1350 hc         1 22P       0.068200
@<TRIPOS>BOND
     1     1     4 1   
     2     1    15 1   
     3     2    13 1   
     4     3     5 1   
     5     3    16 1   
     6     3    17 1   
     7     4     5 1   
     8     4     6 1   
     9     4    13 1   
    10     5    18 1   
    11     5    19 1   
    12     6    14 1   
    13     6    20 1   
    14     6    21 1   
    15     7     8 ar  
    16     7    12 ar  
    17     7    14 1   
    18     8     9 ar  
    19     8    22 1   
    20     9    10 ar  
    21     9    23 1   
    22    10    11 ar  
    23    10    24 1   
    24    11    12 ar  
    25    11    25 1   
    26    12    26 1   
    27    13    27 1   
    28    14    28 1   
    29    14    29 1   
@<TRIPOS>SUBSTRUCTURE
     1 22P         1 TEMP              0 ****  ****    0 ROOT
