@<TRIPOS>MOLECULE
22P
   29    29     1     0     0
SMALL
No Charge or Current Charge


@<TRIPOS>ATOM
      1 O5          -2.1250     1.3700     0.9570 oh         1 22P      -0.627000
      2 O6          -2.8490    -1.2700     1.5300 o          1 22P      -0.716000
      3 N9          -4.1690     0.9360    -1.0640 n8         1 22P      -0.959200
      4 C20         -1.9090     0.3350    -0.0540 c3         1 22P       0.028000
      5 C21         -2.7300     0.7210    -1.3250 c3         1 22P       0.144800
      6 C22         -0.3870     0.3450    -0.4050 c3         1 22P      -0.072400
      7 C23          2.0240    -0.0100     0.3350 ca         1 22P      -0.050300
      8 C24          2.7880     1.1550     0.5430 ca         1 22P      -0.113000
      9 C25          4.1380     1.1960     0.1530 ca         1 22P      -0.120000
     10 C26          4.7310     0.0740    -0.4490 ca         1 22P      -0.135000
     11 C27          3.9740    -1.0900    -0.6620 ca         1 22P      -0.120000
     12 C28          2.6240    -1.1320    -0.2710 ca         1 22P      -0.113000
     13 C29         -2.3530    -1.1190     0.4160 c          1 22P       0.748000
     14 C52          0.5600    -0.0560     0.7540 c3         1 22P      -0.035100
     15 HO5         -1.8060     2.2150     0.5770 ho         1 22P       0.383000
     16 HN9         -4.2530     1.6000    -0.2850 hn         1 22P       0.372500
     17 HN9A        -4.5870     1.4270    -1.8620 hn         1 22P       0.372500
     18 H21         -2.6270    -0.0510    -2.1000 h1         1 22P       0.008700
     19 H21A        -2.3300     1.6590    -1.7340 h1         1 22P       0.008700
     20 H22         -0.2090    -0.3310    -1.2500 hc         1 22P       0.025200
     21 H22A        -0.1040     1.3460    -0.7550 hc         1 22P       0.025200
     22 H24          2.3360     2.0290     1.0060 ha         1 22P       0.117000
     23 H25          4.7230     2.0990     0.3160 ha         1 22P       0.097000
     24 H26          5.7750     0.1070    -0.7520 ha         1 22P       0.094000
     25 H27          4.4310    -1.9590    -1.1290 ha         1 22P       0.097000
     26 H28          2.0430    -2.0360    -0.4420 ha         1 22P       0.117000
     27 OXT         -2.1120    -2.0710    -0.3200 o          1 22P      -0.716000
     28 H52          0.3960     0.6100     1.6090 hc         1 22P       0.068200
     29 H52A         0.3080    -1.0640     1.1030 hc         1 22P       0.068200
@<TRIPOS>BOND
     1     1     4 1   
     2     1    15 1   
     3     2    13 1   
     4     3     5 1   
     5     3    16 1   
     6     3    17 1   
     7     4     5 1   
     8     4     6 1   
     9     4    13 1   
    10     5    18 1   
    11     5    19 1   
    12     6    14 1   
    13     6    20 1   
    14     6    21 1   
    15     7     8 ar  
    16     7    12 ar  
    17     7    14 1   
    18     8     9 ar  
    19     8    22 1   
    20     9    10 ar  
    21     9    23 1   
    22    10    11 ar  
    23    10    24 1   
    24    11    12 ar  
    25    11    25 1   
    26    12    26 1   
    27    13    27 1   
    28    14    28 1   
    29    14    29 1   
@<TRIPOS>SUBSTRUCTURE
     1 22P         1 TEMP              0 ****  ****    0 ROOT
