@<TRIPOS>MOLECULE
22Q
   26    26     1     0     0
SMALL
bcc


@<TRIPOS>ATOM
      1 C           -2.0930    -1.4650     0.2120 c2         1 22Q       0.050600
      2 N           -0.0710    -0.2840     0.1700 nc         1 22Q      -0.536300
      3 S           -1.2390    -2.9410     0.4110 sh         1 22Q      -0.155400
      4 C1           0.6070     0.7890     0.0750 cd         1 22Q       0.401300
      5 N1          -1.4240     2.0810    -0.1560 ns         1 22Q      -0.602500
      6 C2          -2.2140     0.9560    -0.0670 c          1 22Q       0.718700
      7 O2          -3.4240     1.0290    -0.1340 o          1 22Q      -0.595500
      8 C4           2.0990     0.7820     0.1680 c3         1 22Q      -0.107700
      9 C5          -0.0540     2.1180    -0.0990 c          1 22Q       0.586200
     10 C6           2.7530    -0.5940     0.0590 c3         1 22Q      -0.053700
     11 C7           2.6200    -1.1730    -1.3460 c3         1 22Q      -0.088600
     12 C8           4.2220    -0.4920     0.4590 c3         1 22Q      -0.088600
     13 CA          -1.4470    -0.2820     0.1090 cc         1 22Q      -0.031600
     14 H           -3.1740    -1.5100     0.1720 h4         1 22Q       0.167000
     15 HS          -2.3160    -3.7320     0.4630 hs         1 22Q       0.173800
     16 HN1         -1.9020     2.9680    -0.2810 hn         1 22Q       0.333500
     17 H4           2.5110     1.4500    -0.5950 hc         1 22Q       0.069200
     18 H4A          2.3670     1.2460     1.1260 hc         1 22Q       0.069200
     19 H6           2.2520    -1.2700     0.7570 hc         1 22Q       0.063700
     20 H7           3.1240    -0.5380    -2.0780 hc         1 22Q       0.034367
     21 H7A          3.0760    -2.1630    -1.4000 hc         1 22Q       0.034367
     22 H7B          1.5780    -1.2750    -1.6470 hc         1 22Q       0.034367
     23 H8           4.3340    -0.1260     1.4810 hc         1 22Q       0.034367
     24 H8A          4.7120    -1.4640     0.4000 hc         1 22Q       0.034367
     25 H8B          4.7630     0.1920    -0.2000 hc         1 22Q       0.034367
     26 O3           0.5610     3.1580    -0.1820 o          1 22Q      -0.579500
@<TRIPOS>BOND
     1     1     3 1   
     2     1    13 2   
     3     1    14 1   
     4     2     4 2   
     5     2    13 1   
     6     3    15 1   
     7     4     8 1   
     8     4     9 1   
     9     5     6 1   
    10     5     9 1   
    11     5    16 1   
    12     6     7 2   
    13     6    13 1   
    14     8    10 1   
    15     8    17 1   
    16     8    18 1   
    17     9    26 2   
    18    10    11 1   
    19    10    12 1   
    20    10    19 1   
    21    11    20 1   
    22    11    21 1   
    23    11    22 1   
    24    12    23 1   
    25    12    24 1   
    26    12    25 1   
@<TRIPOS>SUBSTRUCTURE
     1 22Q         1 TEMP              0 ****  ****    0 ROOT
