@<TRIPOS>MOLECULE
22Q
   26    26     1     0     0
SMALL
No Charge or Current Charge


@<TRIPOS>ATOM
      1 C           -2.4080    -1.3910     0.7680 c2         1 22Q       0.000600
      2 N           -0.2180    -0.4840     0.7290 nc         1 22Q      -0.536300
      3 S           -1.8800    -2.7900     1.7660 sh         1 22Q      -0.155400
      4 C1           0.5630     0.5160     0.2890 cd         1 22Q       0.401300
      5 N1          -1.2450     1.6520    -0.8500 ns         1 22Q      -0.468500
      6 C2          -2.1470     0.7040    -0.4750 c          1 22Q       0.576200
      7 O2          -3.3190     0.7880    -0.8090 o          1 22Q      -0.520000
      8 C4           2.0310     0.4600     0.6690 c3         1 22Q      -0.107700
      9 C5           0.0890     1.6850    -0.5510 c          1 22Q       0.443700
     10 C6           2.8690    -0.5320    -0.1840 c3         1 22Q      -0.053700
     11 C7           2.8670    -0.1670    -1.6870 c3         1 22Q      -0.088600
     12 C8           4.3130    -0.6490     0.3540 c3         1 22Q      -0.088600
     13 CA          -1.5580    -0.4030     0.3570 cc         1 22Q      -0.031600
     14 H           -3.4650    -1.3730     0.5030 h4         1 22Q       0.217000
     15 HS          -3.0880    -3.3930     1.8520 hs         1 22Q       0.173800
     16 HN1         -1.6050     2.4120    -1.4090 hn         1 22Q       0.333500
     17 H4           2.4830     1.4570     0.6100 hc         1 22Q       0.069200
     18 H4A          2.1080     0.1680     1.7240 hc         1 22Q       0.069200
     19 H6           2.4100    -1.5250    -0.0880 hc         1 22Q       0.063700
     20 H7           3.2800     0.8360    -1.8470 hc         1 22Q       0.034367
     21 H7A          3.4730    -0.8810    -2.2590 hc         1 22Q       0.034367
     22 H7B          1.8510    -0.1920    -2.0990 hc         1 22Q       0.034367
     23 H8           4.3130    -0.9650     1.4050 hc         1 22Q       0.034367
     24 H8A          4.8830    -1.3900    -0.2190 hc         1 22Q       0.034367
     25 H8B          4.8350     0.3130     0.2850 hc         1 22Q       0.034367
     26 O3           0.7870     2.6050    -0.9580 o          1 22Q      -0.504000
@<TRIPOS>BOND
     1     1     3 1   
     2     1    13 2   
     3     1    14 1   
     4     2     4 2   
     5     2    13 1   
     6     3    15 1   
     7     4     8 1   
     8     4     9 1   
     9     5     6 1   
    10     5     9 1   
    11     5    16 1   
    12     6     7 2   
    13     6    13 1   
    14     8    10 1   
    15     8    17 1   
    16     8    18 1   
    17     9    26 2   
    18    10    11 1   
    19    10    12 1   
    20    10    19 1   
    21    11    20 1   
    22    11    21 1   
    23    11    22 1   
    24    12    23 1   
    25    12    24 1   
    26    12    25 1   
@<TRIPOS>SUBSTRUCTURE
     1 22Q         1 TEMP              0 ****  ****    0 ROOT
