@<TRIPOS>MOLECULE
22R
   37    39     1     0     0
SMALL
No Charge or Current Charge


@<TRIPOS>ATOM
      1 C1           3.2690   -22.1700     4.3990 c3         1 22R       0.146800
      2 C10         -2.4560   -21.6620     5.4020 cp         1 22R      -0.022000
      3 C11         -2.6490   -22.1830     4.0970 ca         1 22R      -0.105500
      4 C12         -3.7070   -23.0650     3.8160 ca         1 22R      -0.111000
      5 C13         -4.5950   -23.4460     4.8340 ca         1 22R      -0.112000
      6 C14         -4.4230   -22.9440     6.1340 ca         1 22R      -0.111000
      7 C15         -3.3650   -22.0610     6.4140 ca         1 22R      -0.105500
      8 C16         -1.4790   -19.6700     6.6540 ca         1 22R      -0.080000
      9 C17         -0.4220   -18.7800     6.9400 ca         1 22R      -0.131000
     10 C2           2.9290   -20.7780     3.8210 c3         1 22R      -0.002200
     11 C3           2.2980   -19.8640     4.8410 cc         1 22R      -0.135400
     12 C4           2.8800   -18.7810     5.4970 cd         1 22R      -0.050300
     13 C5           4.2820   -18.2500     5.3480 c3         1 22R      -0.040900
     14 C6           0.7900   -18.9530     6.2630 ca         1 22R      -0.039200
     15 C7           0.9570   -19.9520     5.3500 ca         1 22R      -0.096800
     16 C8          -0.0730   -20.8520     5.0400 ca         1 22R      -0.049000
     17 C9          -1.3280   -20.7220     5.7000 cp         1 22R      -0.069000
     18 N1           3.8930   -23.0580     3.3940 n8         1 22R      -1.000200
     19 N2           1.9440   -18.2040     6.3860 na         1 22R      -0.224700
     20 H3           2.3530   -22.6490     4.7730 h1         1 22R       0.031700
     21 H4           3.9640   -22.0520     5.2420 h1         1 22R       0.031700
     22 H12         -1.9820   -21.8910     3.2900 ha         1 22R       0.112500
     23 H13         -3.8400   -23.4500     2.8070 ha         1 22R       0.110500
     24 H14         -5.4130   -24.1290     4.6170 ha         1 22R       0.111000
     25 H15         -5.1070   -23.2400     6.9260 ha         1 22R       0.110500
     26 H16         -3.2430   -21.6950     7.4300 ha         1 22R       0.112500
     27 H17         -2.4290   -19.5340     7.1650 ha         1 22R       0.112000
     28 H18         -0.5500   -17.9790     7.6650 ha         1 22R       0.114000
     29 H5           3.8430   -20.3220     3.4230 hc         1 22R       0.049200
     30 H6           2.2470   -20.8970     2.9700 hc         1 22R       0.049200
     31 H9           4.4920   -17.4530     6.0710 hc         1 22R       0.050033
     32 H7           5.0210   -19.0450     5.5040 hc         1 22R       0.050033
     33 H8           4.4390   -17.8390     4.3430 hc         1 22R       0.050033
     34 H11          0.0940   -21.6430     4.3140 ha         1 22R       0.114000
     35 H1           4.0510   -23.9820     3.8170 hn         1 22R       0.391000
     36 H2           3.2140   -23.2490     2.6480 hn         1 22R       0.391000
     37 H10          2.0930   -17.4060     6.9940 hn         1 22R       0.348000
@<TRIPOS>BOND
     1     1    10 1   
     2     1    18 1   
     3     1    20 1   
     4     1    21 1   
     5     2     3 ar  
     6     2     7 ar  
     7     2    17 1   
     8     3     4 ar  
     9     3    22 1   
    10     4     5 ar  
    11     4    23 1   
    12     5     6 ar  
    13     5    24 1   
    14     6     7 ar  
    15     6    25 1   
    16     7    26 1   
    17     8     9 ar  
    18     8    17 ar  
    19     8    27 1   
    20     9    14 ar  
    21     9    28 1   
    22    10    11 1   
    23    10    29 1   
    24    10    30 1   
    25    11    12 2   
    26    11    15 1   
    27    12    13 1   
    28    12    19 1   
    29    13    31 1   
    30    13    32 1   
    31    13    33 1   
    32    14    15 ar  
    33    14    19 1   
    34    15    16 ar  
    35    16    17 ar  
    36    16    34 1   
    37    18    35 1   
    38    18    36 1   
    39    19    37 1   
@<TRIPOS>SUBSTRUCTURE
     1 22R         1 TEMP              0 ****  ****    0 ROOT
