@<TRIPOS>MOLECULE
22R
   37    39     1     0     0
SMALL
abcg2


@<TRIPOS>ATOM
      1 C1           3.3640   -22.1290     4.3590 c3         1 22R       0.146800
      2 C10         -2.4630   -21.6430     5.4090 cp         1 22R      -0.022000
      3 C11         -2.6930   -22.1000     4.1080 ca         1 22R      -0.105500
      4 C12         -3.7510   -22.9510     3.8240 ca         1 22R      -0.111000
      5 C13         -4.6140   -23.3580     4.8330 ca         1 22R      -0.112000
      6 C14         -4.4020   -22.9090     6.1300 ca         1 22R      -0.111000
      7 C15         -3.3380   -22.0640     6.4140 ca         1 22R      -0.105500
      8 C16         -1.4610   -19.7310     6.6800 ca         1 22R      -0.080000
      9 C17         -0.4280   -18.8670     6.9850 ca         1 22R      -0.131000
     10 C2           2.9020   -20.7900     3.7850 c3         1 22R      -0.002200
     11 C3           2.2770   -19.9070     4.8140 cc         1 22R      -0.135400
     12 C4           2.8540   -18.8620     5.4890 cd         1 22R      -0.050300
     13 C5           4.2230   -18.2910     5.3880 c3         1 22R      -0.040900
     14 C6           0.7720   -19.0240     6.2970 ca         1 22R      -0.039200
     15 C7           0.9410   -20.0260     5.3190 ca         1 22R      -0.096800
     16 C8          -0.1210   -20.8850     5.0330 ca         1 22R      -0.049000
     17 C9          -1.3280   -20.7450     5.7070 cp         1 22R      -0.069000
     18 N1           3.9370   -22.9650     3.3140 n8         1 22R      -1.000200
     19 N2           1.9460   -18.3370     6.3760 na         1 22R      -0.224700
     20 H3           2.5230   -22.5990     4.8880 h1         1 22R       0.031700
     21 H4           4.1330   -21.9400     5.1120 h1         1 22R       0.031700
     22 H12         -2.0480   -21.7730     3.3020 ha         1 22R       0.112500
     23 H13         -3.9080   -23.2870     2.8070 ha         1 22R       0.110500
     24 H14         -5.4420   -24.0180     4.6120 ha         1 22R       0.111000
     25 H15         -5.0620   -23.2230     6.9280 ha         1 22R       0.110500
     26 H16         -3.1770   -21.7460     7.4370 ha         1 22R       0.112500
     27 H17         -2.4080   -19.6070     7.1900 ha         1 22R       0.112000
     28 H18         -0.5560   -18.0900     7.7290 ha         1 22R       0.114000
     29 H5           3.7560   -20.2950     3.3170 hc         1 22R       0.049200
     30 H6           2.1820   -20.9790     2.9810 hc         1 22R       0.049200
     31 H9           4.1930   -17.2110     5.2280 hc         1 22R       0.050033
     32 H7           4.7980   -18.4680     6.2990 hc         1 22R       0.050033
     33 H8           4.7710   -18.7350     4.5600 hc         1 22R       0.050033
     34 H11          0.0070   -21.6720     4.2980 ha         1 22R       0.114000
     35 H1           4.2840   -23.8240     3.7200 hn         1 22R       0.391000
     36 H2           3.2040   -23.2440     2.6730 hn         1 22R       0.391000
     37 H10          2.1240   -17.5550     6.9850 hn         1 22R       0.348000
@<TRIPOS>BOND
     1     1    10 1   
     2     1    18 1   
     3     1    20 1   
     4     1    21 1   
     5     2     3 ar  
     6     2     7 ar  
     7     2    17 1   
     8     3     4 ar  
     9     3    22 1   
    10     4     5 ar  
    11     4    23 1   
    12     5     6 ar  
    13     5    24 1   
    14     6     7 ar  
    15     6    25 1   
    16     7    26 1   
    17     8     9 ar  
    18     8    17 ar  
    19     8    27 1   
    20     9    14 ar  
    21     9    28 1   
    22    10    11 1   
    23    10    29 1   
    24    10    30 1   
    25    11    12 2   
    26    11    15 1   
    27    12    13 1   
    28    12    19 1   
    29    13    31 1   
    30    13    32 1   
    31    13    33 1   
    32    14    15 ar  
    33    14    19 1   
    34    15    16 ar  
    35    16    17 ar  
    36    16    34 1   
    37    18    35 1   
    38    18    36 1   
    39    19    37 1   
@<TRIPOS>SUBSTRUCTURE
     1 22R         1 TEMP              0 ****  ****    0 ROOT
