@<TRIPOS>MOLECULE
22S
   42    43     1     0     0
SMALL
No Charge or Current Charge


@<TRIPOS>ATOM
      1 C1          33.8820    23.0160    27.7520 c6         1 22S       0.341700
      2 N1          35.0050    23.2440    28.6560 ns         1 22S      -0.442900
      3 S1          33.4740    23.9860    30.7350 s          1 22S      -0.580400
      4 Cl1         36.5030    28.4360    32.6420 cl         1 22S      -0.218000
      5 C2          34.3570    22.8840    26.2670 c6         1 22S       0.138300
      6 N2          36.1630    23.7180    30.5590 ns         1 22S      -0.233900
      7 O2          35.0000    24.0810    25.7790 oh         1 22S      -0.714000
      8 C3          33.1280    22.5460    25.3750 c6         1 22S       0.134300
      9 N3          36.3660    24.0920    31.8740 n2         1 22S      -0.385300
     10 O6          32.3070    19.0020    28.0120 oh         1 22S      -0.725000
     11 C4          32.4270    21.2540    25.8890 c6         1 22S       0.110300
     12 O4          31.2650    20.9740    25.0740 oh         1 22S      -0.730000
     13 C5          32.0650    21.4370    27.4020 c6         1 22S       0.156300
     14 O5          33.2590    21.7780    28.1550 os         1 22S      -0.459000
     15 C6          31.4370    20.1540    28.0460 c3         1 22S       0.162600
     16 O3          33.5240    22.3880    24.0010 oh         1 22S      -0.672000
     17 C7          34.9210    23.6180    29.9660 cs         1 22S       0.502400
     18 C8          36.4130    25.3540    32.1760 ce         1 22S       0.380800
     19 C9          36.6010    25.8210    33.5870 ca         1 22S      -0.121900
     20 C10         36.6540    27.2020    33.8930 ca         1 22S       0.140000
     21 C11         36.8300    27.6310    35.2200 ca         1 22S      -0.111000
     22 C12         36.9560    26.6960    36.2590 ca         1 22S      -0.088000
     23 C13         36.9060    25.3240    35.9690 ca         1 22S      -0.113000
     24 C14         36.7300    24.8880    34.6440 ca         1 22S      -0.063000
     25 H1          33.1690    23.8500    27.8430 h2         1 22S       0.102700
     26 HN1         35.9270    23.1040    28.2680 hn         1 22S       0.311500
     27 H2          35.0600    22.0390    26.2110 h1         1 22S       0.055700
     28 HN2         36.9610    23.4800    29.9770 hn         1 22S       0.296500
     29 HO2         34.9550    24.0050    24.7940 ho         1 22S       0.527000
     30 H3          32.4070    23.3750    25.4580 h1         1 22S       0.060700
     31 HO6         31.8920    18.3100    28.5780 ho         1 22S       0.506000
     32 H4          33.1490    20.4250    25.8140 h1         1 22S       0.075700
     33 HO4         31.0410    20.0210    25.2030 ho         1 22S       0.516000
     34 H5          31.3370    22.2560    27.5070 h1         1 22S       0.062700
     35 H61         30.4920    19.9330    27.5310 h1         1 22S       0.042200
     36 H62         31.1810    20.3990    29.0860 h1         1 22S       0.042200
     37 HO3         32.7690    21.9170    23.5760 ho         1 22S       0.467000
     38 H8          36.3120    26.1100    31.3960 h4         1 22S      -0.000200
     39 H11         36.8690    28.6950    35.4430 ha         1 22S       0.131000
     40 H12         37.0930    27.0330    37.2840 ha         1 22S       0.121000
     41 H13         37.0030    24.5960    36.7720 ha         1 22S       0.125000
     42 H14         36.6930    23.8180    34.4470 ha         1 22S       0.149000
@<TRIPOS>BOND
     1     1     2 1   
     2     1     5 1   
     3     1    14 1   
     4     1    25 1   
     5     2    17 1   
     6     2    26 1   
     7     3    17 2   
     8     4    20 1   
     9     5     7 1   
    10     5     8 1   
    11     5    27 1   
    12     6     9 1   
    13     6    17 1   
    14     6    28 1   
    15     7    29 1   
    16     8    11 1   
    17     8    16 1   
    18     8    30 1   
    19     9    18 2   
    20    10    15 1   
    21    10    31 1   
    22    11    12 1   
    23    11    13 1   
    24    11    32 1   
    25    12    33 1   
    26    13    14 1   
    27    13    15 1   
    28    13    34 1   
    29    15    35 1   
    30    15    36 1   
    31    16    37 1   
    32    18    19 1   
    33    18    38 1   
    34    19    20 ar  
    35    19    24 ar  
    36    20    21 ar  
    37    21    22 ar  
    38    21    39 1   
    39    22    23 ar  
    40    22    40 1   
    41    23    24 ar  
    42    23    41 1   
    43    24    42 1   
@<TRIPOS>SUBSTRUCTURE
     1 22S         1 TEMP              0 ****  ****    0 ROOT
