@<TRIPOS>MOLECULE
22S
   42    43     1     0     0
SMALL
abcg2


@<TRIPOS>ATOM
      1 C1          33.5130    22.9790    27.8440 c6         1 22S       0.341700
      2 N1          34.5280    23.5420    28.6750 ns         1 22S      -0.442900
      3 S1          32.8340    23.9370    30.7150 s          1 22S      -0.580400
      4 CL1         39.4370    26.2090    33.1100 cl         1 22S      -0.218000
      5 C2          33.8350    23.1990    26.3690 c6         1 22S       0.138300
      6 N2          35.4640    24.4480    30.5230 ns         1 22S      -0.233900
      7 O2          33.8660    24.5980    26.1210 oh         1 22S      -0.714000
      8 C3          32.7810    22.5120    25.5140 c6         1 22S       0.134300
      9 N3          35.4960    24.9000    31.7940 n2         1 22S      -0.385300
     10 O6          33.3610    18.7730    27.5450 oh         1 22S      -0.725000
     11 C4          32.6080    21.0520    25.9040 c6         1 22S       0.110300
     12 O4          31.5070    20.5480    25.1500 oh         1 22S      -0.730000
     13 C5          32.3540    20.9530    27.4120 c6         1 22S       0.156300
     14 O5          33.4350    21.5810    28.1070 os         1 22S      -0.459000
     15 C6          32.2150    19.5370    27.9220 c3         1 22S       0.162600
     16 O3          33.1900    22.6570    24.1570 oh         1 22S      -0.672000
     17 C7          34.3270    23.9730    29.9440 cs         1 22S       0.502400
     18 C8          36.6190    25.3380    32.2240 ce         1 22S       0.380800
     19 C9          36.7530    25.8480    33.5850 ca         1 22S      -0.121900
     20 C10         37.9860    26.2770    34.0940 ca         1 22S       0.140000
     21 C11         38.1150    26.7680    35.3870 ca         1 22S      -0.111000
     22 C12         36.9970    26.8380    36.2070 ca         1 22S      -0.088000
     23 C13         35.7570    26.4160    35.7300 ca         1 22S      -0.113000
     24 C14         35.6420    25.9310    34.4400 ca         1 22S      -0.063000
     25 H1          32.5590    23.4510    28.0960 h2         1 22S       0.102700
     26 HN1         35.4710    23.5280    28.3110 hn         1 22S       0.311500
     27 H2          34.8130    22.7490    26.1540 h1         1 22S       0.055700
     28 HN2         36.3230    24.4750    29.9770 hn         1 22S       0.296500
     29 HO2         33.9300    24.7210    25.1640 ho         1 22S       0.527000
     30 H3          31.8230    23.0260    25.6690 h1         1 22S       0.060700
     31 HO6         33.2310    17.8680    27.8520 ho         1 22S       0.506000
     32 H4          33.5210    20.5050    25.6570 h1         1 22S       0.075700
     33 HO4         31.6150    19.5960    25.0380 ho         1 22S       0.516000
     34 H5          31.4170    21.4780    27.6450 h1         1 22S       0.062700
     35 H61         31.3020    19.1050    27.4990 h1         1 22S       0.042200
     36 H62         32.1070    19.5680    29.0100 h1         1 22S       0.042200
     37 HO3         32.4980    22.2770    23.5990 ho         1 22S       0.467000
     38 H8          37.5050    25.3430    31.5900 h4         1 22S      -0.000200
     39 H11         39.0830    27.0900    35.7430 ha         1 22S       0.131000
     40 H12         37.0980    27.2200    37.2140 ha         1 22S       0.121000
     41 H13         34.8830    26.4700    36.3650 ha         1 22S       0.125000
     42 H14         34.6820    25.6060    34.0630 ha         1 22S       0.149000
@<TRIPOS>BOND
     1     1     2 1   
     2     1     5 1   
     3     1    14 1   
     4     1    25 1   
     5     2    17 1   
     6     2    26 1   
     7     3    17 2   
     8     4    20 1   
     9     5     7 1   
    10     5     8 1   
    11     5    27 1   
    12     6     9 1   
    13     6    17 1   
    14     6    28 1   
    15     7    29 1   
    16     8    11 1   
    17     8    16 1   
    18     8    30 1   
    19     9    18 2   
    20    10    15 1   
    21    10    31 1   
    22    11    12 1   
    23    11    13 1   
    24    11    32 1   
    25    12    33 1   
    26    13    14 1   
    27    13    15 1   
    28    13    34 1   
    29    15    35 1   
    30    15    36 1   
    31    16    37 1   
    32    18    19 1   
    33    18    38 1   
    34    19    20 ar  
    35    19    24 ar  
    36    20    21 ar  
    37    21    22 ar  
    38    21    39 1   
    39    22    23 ar  
    40    22    40 1   
    41    23    24 ar  
    42    23    41 1   
    43    24    42 1   
@<TRIPOS>SUBSTRUCTURE
     1 22S         1 TEMP              0 ****  ****    0 ROOT
