@<TRIPOS>MOLECULE
22T
   31    33     1     0     0
SMALL
abcg2


@<TRIPOS>ATOM
      1 CL21        -0.5240    -2.9440     0.0770 cl         1 22T      -0.179000
      2 C14          0.2370    -1.3960    -0.0090 ca         1 22T       0.053000
      3 C13          1.5960    -1.2880     0.1130 ca         1 22T      -0.003000
      4 C10          2.2110    -0.0330     0.0420 ca         1 22T      -0.205600
      5 C11          3.6620     0.0570     0.1740 c          1 22T       0.576600
      6 O13          4.4040    -0.9020     0.3460 o          1 22T      -0.552000
      7 N20          4.1590     1.3320     0.0930 ns         1 22T      -0.385100
      8 C12          3.4070     2.4550    -0.0960 cc         1 22T      -0.029400
      9 C9           1.4260     1.1140    -0.1540 ca         1 22T       0.060200
     10 C8           0.0350     0.9860    -0.2760 ca         1 22T      -0.225000
     11 C7          -0.5750    -0.2550    -0.2070 ca         1 22T       0.192100
     12 O9          -1.8810    -0.4800    -0.3180 os         1 22T      -0.328100
     13 C5          -2.7650     0.6110    -0.5910 c5         1 22T       0.131300
     14 C6          -3.0320     1.4920     0.6520 c5         1 22T       0.109800
     15 C15          2.0680     2.3930    -0.2220 cd         1 22T      -0.271200
     16 C4          -4.1390     0.0290    -0.9370 c5         1 22T      -0.118400
     17 C3          -5.1050     0.7930    -0.0210 c5         1 22T       0.134800
     18 N1          -4.3400     1.1290     1.1730 n7         1 22T      -0.822400
     19 H13          2.1960    -2.1750     0.2630 ha         1 22T       0.152000
     20 H20          5.1600     1.4340     0.1780 hn         1 22T       0.328500
     21 H12          3.9590     3.3820    -0.1370 h4         1 22T       0.199000
     22 H15          1.4920     3.2940    -0.3730 ha         1 22T       0.199000
     23 H8          -0.5490     1.8860    -0.4160 ha         1 22T       0.124000
     24 H5          -2.3550     1.1950    -1.4200 h1         1 22T       0.059700
     25 H61C        -2.2630     1.4030     1.4200 h1         1 22T       0.066200
     26 H62C        -3.0540     2.5380     0.3330 h1         1 22T       0.066200
     27 H41C        -4.3780     0.1270    -1.9950 hc         1 22T       0.068200
     28 H42C        -4.1560    -1.0350    -0.6910 hc         1 22T       0.068200
     29 H1          -4.2480     0.2950     1.7420 hn         1 22T       0.410000
     30 H31C        -5.4320     1.7190    -0.5040 h1         1 22T       0.059700
     31 H32C        -5.9980     0.2220     0.2320 h1         1 22T       0.059700
@<TRIPOS>BOND
     1     1     2 1   
     2     2     3 ar  
     3     2    11 ar  
     4     3     4 ar  
     5     3    19 1   
     6     4     5 1   
     7     4     9 ar  
     8     5     6 2   
     9     5     7 1   
    10     7     8 1   
    11     7    20 1   
    12     8    15 2   
    13     8    21 1   
    14     9    10 ar  
    15     9    15 1   
    16    10    11 ar  
    17    10    23 1   
    18    11    12 1   
    19    12    13 1   
    20    13    14 1   
    21    13    16 1   
    22    13    24 1   
    23    14    18 1   
    24    14    25 1   
    25    14    26 1   
    26    15    22 1   
    27    16    17 1   
    28    16    27 1   
    29    16    28 1   
    30    17    18 1   
    31    17    30 1   
    32    17    31 1   
    33    18    29 1   
@<TRIPOS>SUBSTRUCTURE
     1 22T         1 TEMP              0 ****  ****    0 ROOT
