@<TRIPOS>MOLECULE
22T
   31    33     1     0     0
SMALL
No Charge or Current Charge


@<TRIPOS>ATOM
      1 Cl21        -0.5040    -3.0430     0.1580 cl         1 22T      -0.179000
      2 C14          0.2060    -1.4370    -0.0320 ca         1 22T       0.053000
      3 C13          1.5740    -1.2700     0.2400 ca         1 22T      -0.003000
      4 C10          2.1750    -0.0040     0.1030 ca         1 22T      -0.205600
      5 C11          3.6390     0.1950     0.3890 c          1 22T       0.576600
      6 O13          4.3730    -0.7100     0.7560 o          1 22T      -0.552000
      7 N20          4.1200     1.4730     0.2150 ns         1 22T      -0.385100
      8 C12          3.3770     2.5720    -0.1980 cc         1 22T      -0.029400
      9 C9           1.3980     1.0890    -0.3150 ca         1 22T       0.060200
     10 C8           0.0300     0.9280    -0.5890 ca         1 22T      -0.225000
     11 C7          -0.5880    -0.3410    -0.4380 ca         1 22T       0.192100
     12 O9          -1.9360    -0.5930    -0.6960 os         1 22T      -0.328100
     13 C5          -2.7850     0.5880    -0.6480 c5         1 22T       0.131300
     14 C6          -2.8530     1.1520     0.8200 c5         1 22T       0.109800
     15 C15          2.0380     2.3970    -0.4620 cd         1 22T      -0.271200
     16 C4          -4.2390     0.0990    -0.8990 c5         1 22T      -0.118400
     17 C3          -5.0400     1.0460     0.0200 c5         1 22T       0.134800
     18 N1          -4.2620     0.9750     1.2730 n7         1 22T      -0.822400
     19 H13          2.1620    -2.1280     0.5580 ha         1 22T       0.152000
     20 H20          5.1080     1.5850     0.4130 hn         1 22T       0.328500
     21 H12          3.9420     3.4980    -0.2770 h4         1 22T       0.199000
     22 H15          1.4500     3.2520    -0.7850 ha         1 22T       0.199000
     23 H8          -0.5210     1.7990    -0.9230 ha         1 22T       0.124000
     24 H5          -2.4900     1.3360    -1.3950 h1         1 22T       0.059700
     25 H61C        -2.1530     0.6490     1.5030 h1         1 22T       0.066200
     26 H62C        -2.5880     2.2190     0.8130 h1         1 22T       0.066200
     27 H41C        -4.5350     0.1930    -1.9490 hc         1 22T       0.068200
     28 H42C        -4.3800    -0.9490    -0.6080 hc         1 22T       0.068200
     29 H1          -4.3630     0.0220     1.6470 hn         1 22T       0.410000
     30 H31C        -5.0590     2.0720    -0.3780 h1         1 22T       0.059700
     31 H32C        -6.0790     0.7140     0.1580 h1         1 22T       0.059700
@<TRIPOS>BOND
     1     1     2 1   
     2     2     3 ar  
     3     2    11 ar  
     4     3     4 ar  
     5     3    19 1   
     6     4     5 1   
     7     4     9 ar  
     8     5     6 2   
     9     5     7 1   
    10     7     8 1   
    11     7    20 1   
    12     8    15 2   
    13     8    21 1   
    14     9    10 ar  
    15     9    15 1   
    16    10    11 ar  
    17    10    23 1   
    18    11    12 1   
    19    12    13 1   
    20    13    14 1   
    21    13    16 1   
    22    13    24 1   
    23    14    18 1   
    24    14    25 1   
    25    14    26 1   
    26    15    22 1   
    27    16    17 1   
    28    16    27 1   
    29    16    28 1   
    30    17    18 1   
    31    17    30 1   
    32    17    31 1   
    33    18    29 1   
@<TRIPOS>SUBSTRUCTURE
     1 22T         1 TEMP              0 ****  ****    0 ROOT
