@<TRIPOS>MOLECULE
22U
   51    53     1     0     0
SMALL
abcg2


@<TRIPOS>ATOM
      1 N1           3.6990     1.5830     1.2250 n8         1 22U      -0.981200
      2 C2           3.3840     0.4040     0.4500 c3         1 22U       0.101500
      3 C3           1.9400     0.4990    -0.0200 c          1 22U       0.619100
      4 O1           1.4580     1.5770    -0.3450 o          1 22U      -0.603100
      5 C1           4.2670     0.1840    -0.8040 c3         1 22U      -0.076100
      6 C16          5.7120     0.0070    -0.4410 ca         1 22U      -0.087300
      7 C17          6.2020    -1.2520    -0.0970 ca         1 22U      -0.110000
      8 C21          6.5800     1.0960    -0.3880 ca         1 22U      -0.110000
      9 C18          7.5250    -1.4200     0.2880 ca         1 22U      -0.105500
     10 C20          7.9040     0.9320    -0.0020 ca         1 22U      -0.105500
     11 C19          8.3810    -0.3270     0.3380 ca         1 22U      -0.108000
     12 N2           1.2370    -0.6390    -0.1220 n          1 22U      -0.402800
     13 C7          -0.1260    -0.5990    -0.6200 c5         1 22U       0.030700
     14 C8          -1.0040     0.3110     0.2280 c          1 22U       0.607100
     15 O2          -0.9000     0.3470     1.4420 o          1 22U      -0.582100
     16 C6          -0.5960    -2.0580    -0.5060 c5         1 22U      -0.088400
     17 C5           0.7000    -2.8550    -0.5870 c5         1 22U      -0.094400
     18 C4           1.6780    -1.9920     0.1960 c5         1 22U       0.109000
     19 N3          -1.9370     0.9810    -0.4700 ns         1 22U      -0.501900
     20 C9          -2.9500     1.8140     0.1220 c3         1 22U       0.143300
     21 C10         -4.3530     1.3100    -0.1170 ca         1 22U      -0.094300
     22 C15         -5.4010     2.2150    -0.2470 ca         1 22U      -0.106000
     23 C14         -6.7020     1.7680    -0.4240 ca         1 22U      -0.100000
     24 C13         -6.9810     0.4100    -0.4810 ca         1 22U      -0.103000
     25 C12         -5.9290    -0.4840    -0.3550 ca         1 22U       0.120000
     26 C11         -4.6250    -0.0530    -0.1750 ca         1 22U      -0.093000
     27 CL1         -6.2490    -2.1880    -0.4300 cl         1 22U      -0.209000
     28 HN1          4.6380     1.5040     1.5950 hn         1 22U       0.408500
     29 HN1A         3.6900     2.4050     0.6330 hn         1 22U       0.408500
     30 H2           3.5090    -0.4570     1.1120 h1         1 22U       0.071700
     31 H1           3.9140    -0.6910    -1.3560 hc         1 22U       0.058700
     32 H1A          4.1430     1.0450    -1.4670 hc         1 22U       0.058700
     33 H17          5.5420    -2.1110    -0.1350 ha         1 22U       0.110000
     34 H21          6.2200     2.0810    -0.6610 ha         1 22U       0.110000
     35 H18          7.8880    -2.4060     0.5470 ha         1 22U       0.114500
     36 H20          8.5650     1.7890     0.0310 ha         1 22U       0.114500
     37 H19          9.4130    -0.4570     0.6360 ha         1 22U       0.115000
     38 H7          -0.1350    -0.2770    -1.6660 h1         1 22U       0.062700
     39 H6          -1.3160    -2.3110    -1.2820 hc         1 22U       0.064200
     40 H6A         -1.0690    -2.2290     0.4630 hc         1 22U       0.064200
     41 H5           1.0310    -2.9480    -1.6230 hc         1 22U       0.056200
     42 H5A          0.6080    -3.8570    -0.1720 hc         1 22U       0.056200
     43 H4           2.7090    -2.1650    -0.1100 h1         1 22U       0.052200
     44 H4A          1.6060    -2.1830     1.2700 h1         1 22U       0.052200
     45 HN3         -1.9110     0.9310    -1.4760 hn         1 22U       0.314500
     46 H9          -2.7580     1.8670     1.1940 h1         1 22U       0.071200
     47 H9A         -2.8590     2.8330    -0.2600 h1         1 22U       0.071200
     48 H15         -5.2010     3.2790    -0.2150 ha         1 22U       0.117000
     49 H14         -7.5090     2.4810    -0.5270 ha         1 22U       0.119000
     50 H13         -7.9930     0.0570    -0.6260 ha         1 22U       0.130000
     51 H11         -3.8260    -0.7780    -0.0880 ha         1 22U       0.130000
@<TRIPOS>BOND
     1     1     2 1   
     2     1    28 1   
     3     1    29 1   
     4     2     3 1   
     5     2     5 1   
     6     2    30 1   
     7     3     4 2   
     8     3    12 1   
     9     5     6 1   
    10     5    31 1   
    11     5    32 1   
    12     6     7 ar  
    13     6     8 ar  
    14     7     9 ar  
    15     7    33 1   
    16     8    10 ar  
    17     8    34 1   
    18     9    11 ar  
    19     9    35 1   
    20    10    11 ar  
    21    10    36 1   
    22    11    37 1   
    23    12    13 1   
    24    12    18 1   
    25    13    14 1   
    26    13    16 1   
    27    13    38 1   
    28    14    15 2   
    29    14    19 1   
    30    16    17 1   
    31    16    39 1   
    32    16    40 1   
    33    17    18 1   
    34    17    41 1   
    35    17    42 1   
    36    18    43 1   
    37    18    44 1   
    38    19    20 1   
    39    19    45 1   
    40    20    21 1   
    41    20    46 1   
    42    20    47 1   
    43    21    22 ar  
    44    21    26 ar  
    45    22    23 ar  
    46    22    48 1   
    47    23    24 ar  
    48    23    49 1   
    49    24    25 ar  
    50    24    50 1   
    51    25    26 ar  
    52    25    27 1   
    53    26    51 1   
@<TRIPOS>SUBSTRUCTURE
     1 22U         1 TEMP              0 ****  ****    0 ROOT
