@<TRIPOS>MOLECULE
22U
   51    53     1     0     0
SMALL
No Charge or Current Charge


@<TRIPOS>ATOM
      1 N1           4.0280     1.6470     1.3260 n8         1 22U      -0.981200
      2 C2           3.5130     0.5210     0.4700 c3         1 22U       0.101500
      3 C3           1.9680     0.5500     0.1410 c          1 22U       0.619100
      4 O1           1.3770     1.6150    -0.0220 o          1 22U      -0.603100
      5 C1           4.3520     0.4320    -0.8320 c3         1 22U      -0.076100
      6 C16          5.8410     0.2110    -0.5790 ca         1 22U      -0.087300
      7 C17          6.2990    -1.0250    -0.0820 ca         1 22U      -0.110000
      8 C21          6.7720     1.2360    -0.8450 ca         1 22U      -0.110000
      9 C18          7.6690    -1.2340     0.1510 ca         1 22U      -0.105500
     10 C20          8.1420     1.0270    -0.6110 ca         1 22U      -0.105500
     11 C19          8.5910    -0.2070    -0.1120 ca         1 22U      -0.108000
     12 N2           1.2630    -0.6750     0.0370 n          1 22U      -0.402800
     13 C7          -0.2110    -0.7380    -0.1930 c5         1 22U       0.030700
     14 C8          -1.0930     0.0300     0.8470 c          1 22U       0.607100
     15 O2          -0.7880     0.3680     1.9850 o          1 22U      -0.582100
     16 C6          -0.4850    -2.2650    -0.0280 c5         1 22U      -0.088400
     17 C5           0.8210    -2.8930    -0.5700 c5         1 22U      -0.094400
     18 C4           1.8970    -2.0100     0.1060 c5         1 22U       0.109000
     19 N3          -2.3290     0.2860     0.2960 ns         1 22U      -0.501900
     20 C9          -3.4070     0.9830     0.9910 c3         1 22U       0.143300
     21 C10         -4.6690     1.0150     0.1440 ca         1 22U      -0.094300
     22 C15         -4.9250     2.1050    -0.7110 ca         1 22U      -0.106000
     23 C14         -6.0900     2.1310    -1.4980 ca         1 22U      -0.100000
     24 C13         -7.0040     1.0650    -1.4360 ca         1 22U      -0.103000
     25 C12         -6.7510    -0.0250    -0.5870 ca         1 22U       0.120000
     26 C11         -5.5880    -0.0520     0.2000 ca         1 22U      -0.093000
     27 Cl1         -7.8930    -1.3610    -0.5110 cl         1 22U      -0.209000
     28 HN1          5.0540     1.6290     1.3000 hn         1 22U       0.408500
     29 HN1A         3.7900     2.5380     0.8750 hn         1 22U       0.408500
     30 H2           3.6940    -0.4000     1.0410 h1         1 22U       0.071700
     31 H1           3.9690    -0.3860    -1.4530 hc         1 22U       0.058700
     32 H1A          4.1920     1.3430    -1.4210 hc         1 22U       0.058700
     33 H17          5.5930    -1.8270     0.1220 ha         1 22U       0.110000
     34 H21          6.4350     2.1950    -1.2330 ha         1 22U       0.110000
     35 H18          8.0160    -2.1900     0.5360 ha         1 22U       0.114500
     36 H20          8.8560     1.8220    -0.8170 ha         1 22U       0.114500
     37 H19          9.6520    -0.3680     0.0680 ha         1 22U       0.115000
     38 H7          -0.4500    -0.3900    -1.2070 h1         1 22U       0.062700
     39 H6          -1.3740    -2.5940    -0.5790 hc         1 22U       0.064200
     40 H6A         -0.6360    -2.5380     1.0240 hc         1 22U       0.064200
     41 H5           0.8750    -2.8150    -1.6620 hc         1 22U       0.056200
     42 H5A          0.9250    -3.9520    -0.3100 hc         1 22U       0.056200
     43 H4           2.8530    -2.0640    -0.4310 h1         1 22U       0.052200
     44 H4A          2.0640    -2.3050     1.1510 h1         1 22U       0.052200
     45 HN3         -2.4930    -0.0330    -0.6510 hn         1 22U       0.314500
     46 H9          -3.6100     0.4730     1.9430 h1         1 22U       0.071200
     47 H9A         -3.0830     2.0070     1.2200 h1         1 22U       0.071200
     48 H15         -4.2210     2.9330    -0.7660 ha         1 22U       0.117000
     49 H14         -6.2830     2.9760    -2.1560 ha         1 22U       0.119000
     50 H13         -7.9050     1.0820    -2.0440 ha         1 22U       0.130000
     51 H11         -5.4010    -0.9020     0.8520 ha         1 22U       0.130000
@<TRIPOS>BOND
     1     1     2 1   
     2     1    28 1   
     3     1    29 1   
     4     2     3 1   
     5     2     5 1   
     6     2    30 1   
     7     3     4 2   
     8     3    12 1   
     9     5     6 1   
    10     5    31 1   
    11     5    32 1   
    12     6     7 ar  
    13     6     8 ar  
    14     7     9 ar  
    15     7    33 1   
    16     8    10 ar  
    17     8    34 1   
    18     9    11 ar  
    19     9    35 1   
    20    10    11 ar  
    21    10    36 1   
    22    11    37 1   
    23    12    13 1   
    24    12    18 1   
    25    13    14 1   
    26    13    16 1   
    27    13    38 1   
    28    14    15 2   
    29    14    19 1   
    30    16    17 1   
    31    16    39 1   
    32    16    40 1   
    33    17    18 1   
    34    17    41 1   
    35    17    42 1   
    36    18    43 1   
    37    18    44 1   
    38    19    20 1   
    39    19    45 1   
    40    20    21 1   
    41    20    46 1   
    42    20    47 1   
    43    21    22 ar  
    44    21    26 ar  
    45    22    23 ar  
    46    22    48 1   
    47    23    24 ar  
    48    23    49 1   
    49    24    25 ar  
    50    24    50 1   
    51    25    26 ar  
    52    25    27 1   
    53    26    51 1   
@<TRIPOS>SUBSTRUCTURE
     1 22U         1 TEMP              0 ****  ****    0 ROOT
