@<TRIPOS>MOLECULE
22W
   26    26     1     0     0
SMALL
No Charge or Current Charge


@<TRIPOS>ATOM
      1 C           -2.9850     0.0340     0.7640 c1         1 22W       0.069100
      2 N            1.7820     2.1340    -0.9040 n8         1 22W      -0.992200
      3 O           -0.2580    -0.8390    -1.4300 os         1 22W      -0.424700
      4 S           -4.3730     0.1540     1.5350 s          1 22W       0.225000
      5 CA           1.6840     0.6360    -0.7830 c3         1 22W       0.160200
      6 CB           2.6540     0.0970     0.3250 c3         1 22W      -0.049700
      7 NB          -0.6140     0.6460     0.3110 nc         1 22W      -0.568300
      8 CE           0.2340     0.1470    -0.6000 cd         1 22W       0.529600
      9 CF          -1.7370    -0.0780     0.0680 cc         1 22W      -0.181700
     10 C83         -1.5390    -1.0190    -1.0230 c          1 22W       0.657300
     11 CG1          4.1380     0.5080     0.0610 c3         1 22W      -0.072400
     12 CG2          2.5210    -1.4430     0.5040 c3         1 22W      -0.093100
     13 HN           1.1890     2.4510    -1.6820 hn         1 22W       0.413000
     14 HNA          1.3250     2.5540    -0.0840 hn         1 22W       0.413000
     15 HA           2.0280     0.2110    -1.7380 h1         1 22W       0.087700
     16 HB           2.3490     0.5560     1.2750 hc         1 22W       0.055700
     17 HD1          6.1160     0.5770     0.9780 hc         1 22W       0.032367
     18 HD1A         4.7870     0.4930     2.1520 hc         1 22W       0.032367
     19 HD1B         5.2740    -0.9580     1.2390 hc         1 22W       0.032367
     20 HG1          4.4770     0.0650    -0.8840 hc         1 22W       0.050700
     21 HG1A         4.2010     1.5950    -0.0690 hc         1 22W       0.050700
     22 HG2          3.1460    -1.8050     1.3270 hc         1 22W       0.038700
     23 HG2A         1.4920    -1.7330     0.7460 hc         1 22W       0.038700
     24 HG2B         2.8190    -1.9690    -0.4110 hc         1 22W       0.038700
     25 O26         -2.3310    -1.8170    -1.5010 o          1 22W      -0.455000
     26 CD1          5.1350     0.1280     1.1780 c3         1 22W      -0.088100
@<TRIPOS>BOND
     1     1     4 2   
     2     1     9 2   
     3     2     5 1   
     4     2    13 1   
     5     2    14 1   
     6     3     8 1   
     7     3    10 1   
     8     5     6 1   
     9     5     8 1   
    10     5    15 1   
    11     6    11 1   
    12     6    12 1   
    13     6    16 1   
    14     7     8 2   
    15     7     9 1   
    16     9    10 1   
    17    10    25 2   
    18    11    20 1   
    19    11    21 1   
    20    11    26 1   
    21    12    22 1   
    22    12    23 1   
    23    12    24 1   
    24    17    26 1   
    25    18    26 1   
    26    19    26 1   
@<TRIPOS>SUBSTRUCTURE
     1 22W         1 TEMP              0 ****  ****    0 ROOT
