@<TRIPOS>MOLECULE
22W
   26    26     1     0     0
SMALL
bcc


@<TRIPOS>ATOM
      1 C           -2.8650     0.0400     0.7030 c1         1 22W       0.292000
      2 N            1.7860     2.1360    -0.7770 n8         1 22W      -0.881800
      3 O           -0.1440    -0.8490    -1.3110 os         1 22W      -0.424700
      4 S           -4.2110     0.1610     1.4150 s          1 22W       0.002100
      5 CA           1.6950     0.6910    -0.7720 c3         1 22W       0.160200
      6 CB           2.6220     0.0950     0.3110 c3         1 22W      -0.049700
      7 NB          -0.5740     0.6990     0.2340 nc         1 22W      -0.568300
      8 CE           0.2850     0.2130    -0.5730 cd         1 22W       0.529600
      9 CF          -1.7110    -0.0890     0.0630 cc         1 22W      -0.181700
     10 C83         -1.4410    -1.1080    -0.9490 c          1 22W       0.732800
     11 CG1          4.0790     0.4450     0.0020 c3         1 22W      -0.072400
     12 CG2          2.4340    -1.4120     0.4640 c3         1 22W      -0.093100
     13 HN           1.2130     2.5220    -1.5160 hn         1 22W       0.357800
     14 HNA          1.4290     2.5100     0.0940 hn         1 22W       0.357800
     15 HA           2.0300     0.3230    -1.7470 h1         1 22W       0.087700
     16 HB           2.3430     0.5730     1.2600 hc         1 22W       0.055700
     17 HD1          6.0430     0.5010     0.9080 hc         1 22W       0.032367
     18 HD1A         4.7230     0.6560     2.0630 hc         1 22W       0.032367
     19 HD1B         5.1120    -0.9140     1.3690 hc         1 22W       0.032367
     20 HG1          4.3940    -0.1040    -0.8930 hc         1 22W       0.050700
     21 HG1A         4.1410     1.5040    -0.2490 hc         1 22W       0.050700
     22 HG2          3.1190    -1.8120     1.2110 hc         1 22W       0.038700
     23 HG2A         1.4310    -1.6820     0.7960 hc         1 22W       0.038700
     24 HG2B         2.6310    -1.9330    -0.4760 hc         1 22W       0.038700
     25 O26         -2.0880    -1.9910    -1.4280 o          1 22W      -0.530500
     26 CD1          5.0390     0.1510     1.1480 c3         1 22W      -0.088100
@<TRIPOS>BOND
     1     1     4 2   
     2     1     9 2   
     3     2     5 1   
     4     2    13 1   
     5     2    14 1   
     6     3     8 1   
     7     3    10 1   
     8     5     6 1   
     9     5     8 1   
    10     5    15 1   
    11     6    11 1   
    12     6    12 1   
    13     6    16 1   
    14     7     8 2   
    15     7     9 1   
    16     9    10 1   
    17    10    25 2   
    18    11    20 1   
    19    11    21 1   
    20    11    26 1   
    21    12    22 1   
    22    12    23 1   
    23    12    24 1   
    24    17    26 1   
    25    18    26 1   
    26    19    26 1   
@<TRIPOS>SUBSTRUCTURE
     1 22W         1 TEMP              0 ****  ****    0 ROOT
