@<TRIPOS>MOLECULE
22X
   81    83     1     0     0
SMALL
No Charge or Current Charge


@<TRIPOS>ATOM
      1 C1           2.2160     0.1810     1.2190 c3         1 22X       0.243300
      2 N1           5.2350    -3.8960     0.4900 ns         1 22X      -0.509900
      3 O1           2.2140    -0.0090     2.6400 oh         1 22X      -0.663000
      4 Cl1          4.9770     2.4710    -2.6830 cl         1 22X      -0.205000
      5 C2           3.3980     1.0970     0.8040 ca         1 22X      -0.067300
      6 N2          -3.1880     1.4000    -3.5990 n7         1 22X      -0.846400
      7 O2          -2.2540    -0.9910    -0.7670 o          1 22X      -0.635100
      8 C3           4.2510     1.7080     1.7560 ca         1 22X      -0.086000
      9 N3          -3.5440     0.8760    -0.7010 ns         1 22X      -0.523900
     10 O3           4.9090    -5.8380    -0.6530 o          1 22X      -0.609100
     11 C4           3.6410     1.3500    -0.5680 ca         1 22X      -0.105000
     12 N4          -1.6610     0.6760     0.7110 n          1 22X      -0.392800
     13 C5           5.3110     2.5370     1.3480 ca         1 22X      -0.110000
     14 C6           4.7000     2.1780    -0.9710 ca         1 22X       0.116000
     15 C7           5.5370     2.7720    -0.0170 ca         1 22X      -0.103000
     16 C8           2.4140    -1.2370     0.5860 c3         1 22X      -0.104400
     17 C9           3.7970    -1.8970     0.8540 c3         1 22X      -0.094400
     18 C10          3.9220    -3.3010     0.2300 c3         1 22X       0.103000
     19 C11          5.6340    -5.1260     0.0260 c          1 22X       0.597100
     20 C12          7.0470    -5.5330     0.4240 c3         1 22X      -0.178100
     21 C13         -4.5480     0.4750    -1.7010 c3         1 22X       0.116700
     22 C14         -4.5120     1.4160    -2.9380 c3         1 22X       0.143800
     23 C15         -5.9610     0.4230    -1.0620 c3         1 22X      -0.090400
     24 C16         -6.1330    -0.5160     0.1760 c6         1 22X      -0.056700
     25 C17         -7.5520    -0.3560     0.7930 c6         1 22X      -0.073900
     26 C18         -7.7430    -1.2660     2.0320 c6         1 22X      -0.071900
     27 C19         -7.4680    -2.7480     1.6840 c6         1 22X      -0.075400
     28 C20         -5.8660    -2.0110    -0.1670 c6         1 22X      -0.073900
     29 C21         -6.0580    -2.9220     1.0710 c6         1 22X      -0.071900
     30 C22         -2.4790     0.1110    -0.2910 c          1 22X       0.645100
     31 C23         -0.6540     2.9380     0.9010 c6         1 22X      -0.108400
     32 C24          0.6890     2.3040     1.3410 c6         1 22X      -0.070400
     33 C25          0.8460     0.8460     0.7940 c6         1 22X      -0.114700
     34 C26         -0.4160     0.0110     1.1800 c6         1 22X       0.088000
     35 C27         -1.8430     2.0340     1.2910 c6         1 22X       0.081000
     36 C28         -3.0250     2.3620    -4.7040 c3         1 22X       0.142100
     37 HN1          5.9040    -3.3760     1.0460 hn         1 22X       0.311500
     38 HO1          1.6920    -0.8170     2.8200 ho         1 22X       0.450000
     39 HN2         -2.4830     1.6090    -2.8810 hn         1 22X       0.408000
     40 H3           4.1020     1.5500     2.8220 ha         1 22X       0.135000
     41 HN3         -3.6530     1.7730    -0.2530 hn         1 22X       0.303500
     42 H4           3.0080     0.9060    -1.3310 ha         1 22X       0.133000
     43 H5           5.9570     2.9980     2.0930 ha         1 22X       0.118000
     44 H7           6.3570     3.4130    -0.3340 ha         1 22X       0.130000
     45 H8           1.6400    -1.9190     0.9560 hc         1 22X       0.057700
     46 H8A          2.2630    -1.1720    -0.4980 hc         1 22X       0.057700
     47 H9           4.5950    -1.2640     0.4480 hc         1 22X       0.050700
     48 H9A          3.9660    -1.9730     1.9350 hc         1 22X       0.050700
     49 H10          3.7730    -3.2350    -0.8560 h1         1 22X       0.052700
     50 H10A         3.1470    -3.9600     0.6450 h1         1 22X       0.052700
     51 H12          7.3290    -6.5190     0.0360 hc         1 22X       0.058700
     52 H12A         7.7480    -4.7550     0.0980 hc         1 22X       0.058700
     53 H12B         7.1380    -5.4860     1.5150 hc         1 22X       0.058700
     54 H13         -4.3090    -0.5330    -2.0670 h1         1 22X       0.102700
     55 H14         -4.7580     2.4350    -2.6070 h1         1 22X       0.030200
     56 H14A        -5.2900     1.1030    -3.6480 h1         1 22X       0.030200
     57 H15         -6.2370     1.4450    -0.7760 hc         1 22X       0.041200
     58 H15A        -6.6780     0.1270    -1.8390 hc         1 22X       0.041200
     59 H16         -5.4000    -0.1930     0.9280 hc         1 22X       0.047700
     60 H17         -7.7190     0.6910     1.0820 hc         1 22X       0.041450
     61 H17A        -8.3160    -0.5960     0.0410 hc         1 22X       0.041450
     62 H18         -7.0670    -0.9430     2.8360 hc         1 22X       0.038700
     63 H18A        -8.7640    -1.1570     2.4200 hc         1 22X       0.038700
     64 H19         -7.5620    -3.3670     2.5870 hc         1 22X       0.037200
     65 H19A        -8.2270    -3.1090     0.9760 hc         1 22X       0.037200
     66 H20         -6.5390    -2.3360    -0.9720 hc         1 22X       0.041450
     67 H20A        -4.8440    -2.1410    -0.5450 hc         1 22X       0.041450
     68 H21         -5.2950    -2.6870     1.8250 hc         1 22X       0.038700
     69 H21A        -5.9030    -3.9720     0.7870 hc         1 22X       0.038700
     70 H23         -0.7700     3.9280     1.3620 hc         1 22X       0.047200
     71 H23A        -0.6520     3.0950    -0.1860 hc         1 22X       0.047200
     72 H24          1.5110     2.9420     0.9920 hc         1 22X       0.053200
     73 H24A         0.7460     2.3010     2.4390 hc         1 22X       0.053200
     74 H25          0.8630     0.9060    -0.3020 hc         1 22X       0.069700
     75 H26         -0.4700    -0.1030     2.2720 h1         1 22X       0.064700
     76 H26A        -0.3470    -0.9980     0.7530 h1         1 22X       0.064700
     77 H27         -2.7810     2.5040     0.9710 h1         1 22X       0.052200
     78 H27A        -1.8890     1.9470     2.3860 h1         1 22X       0.052200
     79 H28         -3.7590     2.1720    -5.4990 h1         1 22X       0.029033
     80 H28A        -3.1600     3.3920    -4.3490 h1         1 22X       0.029033
     81 H28B        -2.0210     2.2800    -5.1410 h1         1 22X       0.029033
@<TRIPOS>BOND
     1     1     3 1   
     2     1     5 1   
     3     1    16 1   
     4     1    33 1   
     5     2    18 1   
     6     2    19 1   
     7     2    37 1   
     8     3    38 1   
     9     4    14 1   
    10     5     8 ar  
    11     5    11 ar  
    12     6    22 1   
    13     6    36 1   
    14     6    39 1   
    15     7    30 2   
    16     8    13 ar  
    17     8    40 1   
    18     9    21 1   
    19     9    30 1   
    20     9    41 1   
    21    10    19 2   
    22    11    14 ar  
    23    11    42 1   
    24    12    30 1   
    25    12    34 1   
    26    12    35 1   
    27    13    15 ar  
    28    13    43 1   
    29    14    15 ar  
    30    15    44 1   
    31    16    17 1   
    32    16    45 1   
    33    16    46 1   
    34    17    18 1   
    35    17    47 1   
    36    17    48 1   
    37    18    49 1   
    38    18    50 1   
    39    19    20 1   
    40    20    51 1   
    41    20    52 1   
    42    20    53 1   
    43    21    22 1   
    44    21    23 1   
    45    21    54 1   
    46    22    55 1   
    47    22    56 1   
    48    23    24 1   
    49    23    57 1   
    50    23    58 1   
    51    24    25 1   
    52    24    28 1   
    53    24    59 1   
    54    25    26 1   
    55    25    60 1   
    56    25    61 1   
    57    26    27 1   
    58    26    62 1   
    59    26    63 1   
    60    27    29 1   
    61    27    64 1   
    62    27    65 1   
    63    28    29 1   
    64    28    66 1   
    65    28    67 1   
    66    29    68 1   
    67    29    69 1   
    68    31    32 1   
    69    31    35 1   
    70    31    70 1   
    71    31    71 1   
    72    32    33 1   
    73    32    72 1   
    74    32    73 1   
    75    33    34 1   
    76    33    74 1   
    77    34    75 1   
    78    34    76 1   
    79    35    77 1   
    80    35    78 1   
    81    36    79 1   
    82    36    80 1   
    83    36    81 1   
@<TRIPOS>SUBSTRUCTURE
     1 22X         1 TEMP              0 ****  ****    0 ROOT
