@<TRIPOS>MOLECULE
22X
   81    83     1     0     0
SMALL
bcc


@<TRIPOS>ATOM
      1 C1           2.1150     0.2750     1.1950 c3         1 22X       0.220100
      2 N1           4.9200    -3.8360     0.6030 ns         1 22X      -0.576900
      3 O1           2.4040     0.3480     2.5750 oh         1 22X      -0.600800
      4 CL1          3.9130     2.1500    -3.3110 cl         1 22X      -0.113400
      5 C2           3.1570     1.1170     0.4750 ca         1 22X      -0.067300
      6 N2          -2.6420     1.7010    -3.0240 n7         1 22X      -0.791200
      7 O2          -1.9570    -0.8710    -0.3790 o          1 22X      -0.635100
      8 C3           4.1890     1.7570     1.1520 ca         1 22X      -0.104000
      9 N3          -3.3480     0.9140    -0.3270 ns         1 22X      -0.590900
     10 O3           4.3300    -5.9140    -0.0240 o          1 22X      -0.609100
     11 C4           3.0860     1.2470    -0.9110 ca         1 22X      -0.123000
     12 N4          -1.7150     0.6310     1.3070 n          1 22X      -0.459800
     13 C5           5.1270     2.5120     0.4590 ca         1 22X      -0.128000
     14 C6           4.0280     2.0040    -1.5850 ca         1 22X       0.024400
     15 C7           5.0590     2.6460    -0.9180 ca         1 22X      -0.121000
     16 C8           2.2210    -1.1830     0.7090 c3         1 22X      -0.104400
     17 C9           3.6040    -1.8010     0.8720 c3         1 22X      -0.094400
     18 C10          3.5960    -3.2650     0.4640 c3         1 22X       0.103000
     19 C11          5.1920    -5.1210     0.3390 c          1 22X       0.664100
     20 C12          6.6330    -5.5330     0.5100 c3         1 22X      -0.178100
     21 C13         -4.1570     0.5350    -1.4690 c3         1 22X       0.116700
     22 C14         -4.0130     1.5710    -2.5820 c3         1 22X       0.143800
     23 C15         -5.6270     0.3750    -1.0790 c3         1 22X      -0.090400
     24 C16         -5.9090    -0.6210     0.0430 c6         1 22X      -0.056700
     25 C17         -7.3920    -0.5930     0.4170 c6         1 22X      -0.073900
     26 C18         -7.7190    -1.5690     1.5420 c6         1 22X      -0.071900
     27 C19         -7.2850    -2.9870     1.1850 c6         1 22X      -0.075400
     28 C20         -5.4840    -2.0460    -0.3090 c6         1 22X      -0.073900
     29 C21         -5.8070    -3.0290     0.8130 c6         1 22X      -0.071900
     30 C22         -2.3210     0.1710     0.1590 c          1 22X       0.779100
     31 C23         -0.8100     2.8890     1.0720 c6         1 22X      -0.108400
     32 C24          0.6000     2.3380     1.2690 c6         1 22X      -0.070400
     33 C25          0.7020     0.8510     0.9090 c6         1 22X      -0.114700
     34 C26         -0.4110     0.0750     1.6280 c6         1 22X       0.088000
     35 C27         -1.8310     2.0050     1.7730 c6         1 22X       0.081000
     36 C28         -2.4900     2.6830    -4.0780 c3         1 22X       0.142100
     37 HN1          5.6730    -3.2240     0.8730 hn         1 22X       0.311500
     38 HO1          1.9430    -0.3650     3.0290 ho         1 22X       0.411000
     39 HN2         -2.0730     1.9820    -2.2340 hn         1 22X       0.352800
     40 H3           4.2740     1.6710     2.2250 ha         1 22X       0.153000
     41 HN3         -3.6530     1.7350     0.1670 hn         1 22X       0.303500
     42 H4           2.2980     0.7660    -1.4760 ha         1 22X       0.151000
     43 H5           5.9250     3.0030     1.0010 ha         1 22X       0.136000
     44 H7           5.7900     3.2330    -1.4580 ha         1 22X       0.148000
     45 H8           1.4990    -1.7930     1.2620 hc         1 22X       0.057700
     46 H8A          1.9110    -1.2370    -0.3380 hc         1 22X       0.057700
     47 H9           4.3340    -1.2590     0.2660 hc         1 22X       0.050700
     48 H9A          3.9290    -1.7160     1.9120 hc         1 22X       0.050700
     49 H10          3.2550    -3.3610    -0.5720 h1         1 22X       0.052700
     50 H10A         2.8860    -3.8210     1.0830 h1         1 22X       0.052700
     51 H12          6.6910    -6.3830     1.1890 hc         1 22X       0.058700
     52 H12A         7.0340    -5.8560    -0.4510 hc         1 22X       0.058700
     53 H12B         7.2700    -4.7380     0.8950 hc         1 22X       0.058700
     54 H13         -3.7710    -0.4130    -1.8400 h1         1 22X       0.102700
     55 H14         -4.4450     2.5290    -2.2430 h1         1 22X       0.030200
     56 H14A        -4.6220     1.2470    -3.4320 h1         1 22X       0.030200
     57 H15         -6.0250     1.3560    -0.7910 hc         1 22X       0.041200
     58 H15A        -6.1840     0.0750    -1.9740 hc         1 22X       0.041200
     59 H16         -5.3410    -0.3080     0.9300 hc         1 22X       0.047700
     60 H17         -7.6820     0.4230     0.7040 hc         1 22X       0.041450
     61 H17A        -7.9900    -0.8470    -0.4670 hc         1 22X       0.041450
     62 H18         -7.2030    -1.2530     2.4550 hc         1 22X       0.038700
     63 H18A        -8.7880    -1.5430     1.7650 hc         1 22X       0.038700
     64 H19         -7.4880    -3.6680     2.0150 hc         1 22X       0.037200
     65 H19A        -7.8810    -3.3450     0.3380 hc         1 22X       0.037200
     66 H20         -6.0040    -2.3560    -1.2250 hc         1 22X       0.041450
     67 H20A        -4.4150    -2.0840    -0.5310 hc         1 22X       0.041450
     68 H21         -5.2050    -2.7780     1.6930 hc         1 22X       0.038700
     69 H21A        -5.5180    -4.0410     0.5190 hc         1 22X       0.038700
     70 H23         -0.8700     3.9080     1.4620 hc         1 22X       0.047200
     71 H23A        -1.0510     2.9480     0.0050 hc         1 22X       0.047200
     72 H24          1.3030     2.9210     0.6710 hc         1 22X       0.053200
     73 H24A         0.8940     2.4730     2.3150 hc         1 22X       0.053200
     74 H25          0.5200     0.7410    -0.1660 hc         1 22X       0.069700
     75 H26         -0.2880     0.1480     2.7120 h1         1 22X       0.064700
     76 H26A        -0.4020    -0.9800     1.3710 h1         1 22X       0.064700
     77 H27         -2.8460     2.3850     1.6680 h1         1 22X       0.052200
     78 H27A        -1.6380     2.0000     2.8490 h1         1 22X       0.052200
     79 H28         -2.9990     2.3430    -4.9820 h1         1 22X       0.029033
     80 H28A        -2.8920     3.6750    -3.8290 h1         1 22X       0.029033
     81 H28B        -1.4340     2.8020    -4.3230 h1         1 22X       0.029033
@<TRIPOS>BOND
     1     1     3 1   
     2     1     5 1   
     3     1    16 1   
     4     1    33 1   
     5     2    18 1   
     6     2    19 1   
     7     2    37 1   
     8     3    38 1   
     9     4    14 1   
    10     5     8 ar  
    11     5    11 ar  
    12     6    22 1   
    13     6    36 1   
    14     6    39 1   
    15     7    30 2   
    16     8    13 ar  
    17     8    40 1   
    18     9    21 1   
    19     9    30 1   
    20     9    41 1   
    21    10    19 2   
    22    11    14 ar  
    23    11    42 1   
    24    12    30 1   
    25    12    34 1   
    26    12    35 1   
    27    13    15 ar  
    28    13    43 1   
    29    14    15 ar  
    30    15    44 1   
    31    16    17 1   
    32    16    45 1   
    33    16    46 1   
    34    17    18 1   
    35    17    47 1   
    36    17    48 1   
    37    18    49 1   
    38    18    50 1   
    39    19    20 1   
    40    20    51 1   
    41    20    52 1   
    42    20    53 1   
    43    21    22 1   
    44    21    23 1   
    45    21    54 1   
    46    22    55 1   
    47    22    56 1   
    48    23    24 1   
    49    23    57 1   
    50    23    58 1   
    51    24    25 1   
    52    24    28 1   
    53    24    59 1   
    54    25    26 1   
    55    25    60 1   
    56    25    61 1   
    57    26    27 1   
    58    26    62 1   
    59    26    63 1   
    60    27    29 1   
    61    27    64 1   
    62    27    65 1   
    63    28    29 1   
    64    28    66 1   
    65    28    67 1   
    66    29    68 1   
    67    29    69 1   
    68    31    32 1   
    69    31    35 1   
    70    31    70 1   
    71    31    71 1   
    72    32    33 1   
    73    32    72 1   
    74    32    73 1   
    75    33    34 1   
    76    33    74 1   
    77    34    75 1   
    78    34    76 1   
    79    35    77 1   
    80    35    78 1   
    81    36    79 1   
    82    36    80 1   
    83    36    81 1   
@<TRIPOS>SUBSTRUCTURE
     1 22X         1 TEMP              0 ****  ****    0 ROOT
