@<TRIPOS>MOLECULE
22Y
   42    44     1     0     0
SMALL
abcg2


@<TRIPOS>ATOM
      1 C1           2.5130     1.0860    -1.5540 c3         1 22Y      -0.088100
      2 C2           2.6870     0.3960    -0.2030 c3         1 22Y       0.271800
      3 C4           4.0990     0.5660     0.3010 ca         1 22Y      -0.094300
      4 C5           4.3680     1.4530     1.3380 ca         1 22Y      -0.099500
      5 C6           5.6680     1.6500     1.7870 ca         1 22Y      -0.116500
      6 C7           6.7180     0.9530     1.2040 ca         1 22Y      -0.114000
      7 C8           6.4590     0.0620     0.1700 ca         1 22Y      -0.116500
      8 C9           5.1600    -0.1270    -0.2810 ca         1 22Y      -0.099500
      9 N10          2.3820    -1.0270    -0.2960 nu         1 22Y      -0.920100
     10 C11          1.0840    -1.4610    -0.3350 ca         1 22Y       0.514900
     11 C12          0.8290    -2.8740    -0.3200 ca         1 22Y       0.472900
     12 N13         -0.3990    -3.3240    -0.3020 nb         1 22Y      -0.694000
     13 C14         -1.4020    -2.4340    -0.3360 ca         1 22Y       0.286900
     14 C15         -1.1640    -1.0840    -0.4110 cp         1 22Y       0.388500
     15 N16          0.0950    -0.6090    -0.3960 nb         1 22Y      -0.682000
     16 C17         -2.2730    -0.1100    -0.4690 cp         1 22Y      -0.174500
     17 C18         -3.2520    -0.1170     0.5230 ca         1 22Y      -0.063000
     18 C19         -4.3150     0.7790     0.5260 ca         1 22Y      -0.135600
     19 C20         -4.3920     1.7140    -0.5010 ca         1 22Y      -0.068000
     20 C21         -3.4450     1.7390    -1.5110 ca         1 22Y      -0.145000
     21 C22         -2.3980     0.8300    -1.4920 ca         1 22Y       0.135000
     22 CL1         -1.2810     0.8450    -2.8180 cl         1 22Y      -0.252000
     23 C24         -5.3640     0.7410     1.6320 c          1 22Y       0.714600
     24 O25         -6.2550     1.6090     1.5790 o          1 22Y      -0.714500
     25 O26         -5.2390    -0.1540     2.4890 o          1 22Y      -0.714500
     26 N27          1.8820    -3.7490    -0.2670 nv         1 22Y      -1.042900
     27 H1           3.1770     0.6500    -2.3010 hc         1 22Y       0.045033
     28 H2           1.4870     0.9980    -1.9080 hc         1 22Y       0.045033
     29 H3           2.7500     2.1470    -1.4640 hc         1 22Y       0.045033
     30 H4           2.0060     0.8730     0.5120 h1         1 22Y       0.066700
     31 H5           3.5520     1.9960     1.8010 ha         1 22Y       0.118500
     32 H6           5.8570     2.3420     2.5970 ha         1 22Y       0.108000
     33 H7           7.7310     1.1000     1.5560 ha         1 22Y       0.106000
     34 H8           7.2710    -0.4880    -0.2880 ha         1 22Y       0.108000
     35 H9           4.9780    -0.8230    -1.0920 ha         1 22Y       0.118500
     36 H10          2.9930    -1.6200     0.2480 hn         1 22Y       0.473000
     37 H11         -2.4110    -2.8290    -0.3310 h4         1 22Y       0.040100
     38 H12         -3.1690    -0.8380     1.3260 ha         1 22Y       0.136000
     39 H13         -5.2060     2.4260    -0.5190 ha         1 22Y       0.134000
     40 H14         -3.5230     2.4560    -2.3170 ha         1 22Y       0.106000
     41 H16          2.6870    -3.5070    -0.8270 hn         1 22Y       0.450000
     42 H17          1.6190    -4.7160    -0.3870 hn         1 22Y       0.450000
@<TRIPOS>BOND
     1     1     2 1   
     2     1    27 1   
     3     1    28 1   
     4     1    29 1   
     5     2     3 1   
     6     2     9 1   
     7     2    30 1   
     8     3     4 ar  
     9     3     8 ar  
    10     4     5 ar  
    11     4    31 1   
    12     5     6 ar  
    13     5    32 1   
    14     6     7 ar  
    15     6    33 1   
    16     7     8 ar  
    17     7    34 1   
    18     8    35 1   
    19     9    10 1   
    20     9    36 1   
    21    10    11 ar  
    22    10    15 ar  
    23    11    12 ar  
    24    11    26 1   
    25    12    13 ar  
    26    13    14 ar  
    27    13    37 1   
    28    14    15 ar  
    29    14    16 1   
    30    16    17 ar  
    31    16    21 ar  
    32    17    18 ar  
    33    17    38 1   
    34    18    19 ar  
    35    18    23 1   
    36    19    20 ar  
    37    19    39 1   
    38    20    21 ar  
    39    20    40 1   
    40    21    22 1   
    41    23    24 1   
    42    23    25 1   
    43    26    41 1   
    44    26    42 1   
@<TRIPOS>SUBSTRUCTURE
     1 22Y         1 TEMP              0 ****  ****    0 ROOT
