@<TRIPOS>MOLECULE
22Y
   42    44     1     0     0
SMALL
No Charge or Current Charge


@<TRIPOS>ATOM
      1 C1           2.7560     0.8610    -1.9150 c3         1 22Y      -0.088100
      2 C2           2.7780     0.4630    -0.4230 c3         1 22Y       0.271800
      3 C4           4.1550     0.6630     0.2150 ca         1 22Y      -0.094300
      4 C5           4.2790     1.4400     1.3860 ca         1 22Y      -0.099500
      5 C6           5.5370     1.6310     1.9850 ca         1 22Y      -0.116500
      6 C7           6.6820     1.0450     1.4220 ca         1 22Y      -0.114000
      7 C8           6.5690     0.2650     0.2600 ca         1 22Y      -0.116500
      8 C9           5.3120     0.0730    -0.3410 ca         1 22Y      -0.099500
      9 N10          2.3720    -0.9390    -0.2580 nu         1 22Y      -0.920100
     10 C11          1.0800    -1.4820    -0.3160 ca         1 22Y       0.514900
     11 C12          0.7940    -2.9170    -0.2960 ca         1 22Y       0.472900
     12 N13         -0.4480    -3.4210    -0.3210 nb         1 22Y      -0.694000
     13 C14         -1.4320    -2.4770    -0.3710 ca         1 22Y       0.286900
     14 C15         -1.1790    -1.0620    -0.4100 cp         1 22Y       0.388500
     15 N16          0.0880    -0.5660    -0.3670 nb         1 22Y      -0.682000
     16 C17         -2.2990    -0.0710    -0.4210 cp         1 22Y      -0.174500
     17 C18         -3.2880    -0.1270     0.5950 ca         1 22Y      -0.063000
     18 C19         -4.3700     0.7830     0.6340 ca         1 22Y      -0.135600
     19 C20         -4.4600     1.7660    -0.3760 ca         1 22Y      -0.068000
     20 C21         -3.4990     1.8270    -1.3980 ca         1 22Y      -0.145000
     21 C22         -2.4280     0.9200    -1.4280 ca         1 22Y       0.135000
     22 Cl1         -1.3100     1.0290    -2.7870 cl         1 22Y      -0.252000
     23 C24         -5.4120     0.7070     1.7390 c          1 22Y       0.714600
     24 O25         -6.3200     1.5270     1.7440 o          1 22Y      -0.714500
     25 O26         -5.3070    -0.1710     2.5830 o          1 22Y      -0.714500
     26 N27          1.6980    -3.9410    -0.2640 nv         1 22Y      -1.042900
     27 H1           3.4010     0.2080    -2.5140 hc         1 22Y       0.045033
     28 H2           1.7390     0.7960    -2.3180 hc         1 22Y       0.045033
     29 H3           3.1020     1.8940    -2.0370 hc         1 22Y       0.045033
     30 H4           2.0690     1.1160     0.1080 h1         1 22Y       0.066700
     31 H5           3.4000     1.8980     1.8340 ha         1 22Y       0.118500
     32 H6           5.6220     2.2330     2.8870 ha         1 22Y       0.108000
     33 H7           7.6540     1.1930     1.8860 ha         1 22Y       0.106000
     34 H8           7.4540    -0.1920    -0.1760 ha         1 22Y       0.108000
     35 H9           5.2410    -0.5390    -1.2380 ha         1 22Y       0.118500
     36 H10          3.1060    -1.5990    -0.0170 hn         1 22Y       0.473000
     37 H11         -2.4560    -2.8480    -0.3870 h4         1 22Y       0.040100
     38 H12         -3.2010    -0.8870     1.3700 ha         1 22Y       0.136000
     39 H13         -5.2800     2.4810    -0.3790 ha         1 22Y       0.134000
     40 H14         -3.5910     2.5790    -2.1780 ha         1 22Y       0.106000
     41 H16          2.6320    -3.7680    -0.6220 hn         1 22Y       0.450000
     42 H17          1.3210    -4.8690    -0.4240 hn         1 22Y       0.450000
@<TRIPOS>BOND
     1     1     2 1   
     2     1    27 1   
     3     1    28 1   
     4     1    29 1   
     5     2     3 1   
     6     2     9 1   
     7     2    30 1   
     8     3     4 ar  
     9     3     8 ar  
    10     4     5 ar  
    11     4    31 1   
    12     5     6 ar  
    13     5    32 1   
    14     6     7 ar  
    15     6    33 1   
    16     7     8 ar  
    17     7    34 1   
    18     8    35 1   
    19     9    10 1   
    20     9    36 1   
    21    10    11 ar  
    22    10    15 ar  
    23    11    12 ar  
    24    11    26 1   
    25    12    13 ar  
    26    13    14 ar  
    27    13    37 1   
    28    14    15 ar  
    29    14    16 1   
    30    16    17 ar  
    31    16    21 ar  
    32    17    18 ar  
    33    17    38 1   
    34    18    19 ar  
    35    18    23 1   
    36    19    20 ar  
    37    19    39 1   
    38    20    21 ar  
    39    20    40 1   
    40    21    22 1   
    41    23    24 1   
    42    23    25 1   
    43    26    41 1   
    44    26    42 1   
@<TRIPOS>SUBSTRUCTURE
     1 22Y         1 TEMP              0 ****  ****    0 ROOT
