@<TRIPOS>MOLECULE
22Z
   52    53     1     0     0
SMALL
No Charge or Current Charge


@<TRIPOS>ATOM
      1 N01          2.3620     0.3560     0.3180 nu         1 22Z      -0.950200
      2 N02          3.4980    -3.7280    -0.0830 nt         1 22Z      -0.595000
      3 N03          5.6430     3.2780    -1.1610 nb         1 22Z      -0.664000
      4 N04         -2.2760    -0.7850     0.1530 nu         1 22Z      -0.943200
      5 N05         -1.6580    -3.6220    -0.0820 no         1 22Z       0.720200
      6 C06          0.7350    -2.9480    -0.0010 ca         1 22Z       0.074000
      7 C07          1.7670    -1.9890     0.1010 ca         1 22Z      -0.304600
      8 C08          1.4020    -0.6350     0.2120 ca         1 22Z       0.474000
      9 C09          0.0620    -0.2570     0.2310 ca         1 22Z      -0.365000
     10 C10         -0.9530    -1.2050     0.1210 ca         1 22Z       0.487000
     11 C11         -0.6210    -2.5610     0.0040 ca         1 22Z      -0.361200
     12 C13          2.3030     1.6880    -0.2850 c3         1 22Z       0.281100
     13 C14          3.6430     2.3750    -0.1170 ca         1 22Z      -0.173300
     14 C15          4.4410     2.6600    -1.2420 ca         1 22Z       0.356900
     15 C16          6.0870     3.6360     0.0670 ca         1 22Z       0.348900
     16 C17          5.3570     3.3940     1.2420 ca         1 22Z      -0.164000
     17 C18          4.1100     2.7530     1.1550 ca         1 22Z      -0.051000
     18 C19         -2.7890     0.5900     0.0950 c3         1 22Z       0.224800
     19 C20         -4.3290     0.5840     0.0840 c3         1 22Z      -0.096400
     20 C21         -4.9350     2.0040     0.0280 c3         1 22Z      -0.072400
     21 C22         -6.4790     2.0030     0.0170 c3         1 22Z      -0.076400
     22 C23         -7.0840     3.4230    -0.0380 c3         1 22Z      -0.074400
     23 C24         -8.6250     3.4230    -0.0490 c3         1 22Z      -0.089100
     24 O25          4.1520    -1.6540     0.2410 o          1 22Z      -0.649100
     25 O26         -1.3780    -4.7370     0.3720 o          1 22Z      -0.444000
     26 O27         -2.7150    -3.3740    -0.6750 o          1 22Z      -0.444000
     27 HN01         3.3020    -0.0570     0.3620 hn         1 22Z       0.544000
     28 HN02         2.7630    -4.4020    -0.2180 hn         1 22Z       0.319000
     29 HN0A         4.4640    -4.0180    -0.0870 hn         1 22Z       0.319000
     30 HN04        -2.9370    -1.5280    -0.0860 hn         1 22Z       0.535000
     31 H06          0.9740    -4.0060    -0.0880 ha         1 22Z       0.140000
     32 H09         -0.1890     0.7900     0.3410 ha         1 22Z       0.122000
     33 H13          2.0580     1.6080    -1.3530 h1         1 22Z       0.050700
     34 H13A         1.5230     2.2960     0.1940 h1         1 22Z       0.050700
     35 H15          4.1110     2.3850    -2.2430 h4         1 22Z       0.021100
     36 H16          7.0560     4.1310     0.1080 h4         1 22Z       0.022100
     37 H17          5.7570     3.7020     2.2040 ha         1 22Z       0.129000
     38 H18          3.5230     2.5540     2.0500 ha         1 22Z       0.124000
     39 H19         -2.4360     1.1610     0.9650 h1         1 22Z       0.045700
     40 H19A        -2.4230     1.0890    -0.8130 h1         1 22Z       0.045700
     41 H20         -4.6820     0.0090    -0.7810 hc         1 22Z       0.054200
     42 H20A        -4.6930     0.0730     0.9840 hc         1 22Z       0.054200
     43 H21         -4.5810     2.5810     0.8920 hc         1 22Z       0.039700
     44 H21A        -4.5680     2.5170    -0.8700 hc         1 22Z       0.039700
     45 H22         -6.8330     1.4270    -0.8470 hc         1 22Z       0.041200
     46 H22A        -6.8450     1.4910     0.9160 hc         1 22Z       0.041200
     47 H23         -6.7340     4.0020     0.8250 hc         1 22Z       0.036700
     48 H23A        -6.7220     3.9380    -0.9370 hc         1 22Z       0.036700
     49 H24         -9.0190     2.9450     0.8560 hc         1 22Z       0.033367
     50 H24A        -9.0070     4.4500    -0.0890 hc         1 22Z       0.033367
     51 H24B        -9.0070     2.8800    -0.9220 hc         1 22Z       0.033367
     52 C12          3.2160    -2.4220     0.0920 c          1 22Z       0.640700
@<TRIPOS>BOND
     1     1     8 1   
     2     1    12 1   
     3     1    27 1   
     4     2    28 1   
     5     2    29 1   
     6     2    52 1   
     7     3    14 ar  
     8     3    15 ar  
     9     4    10 1   
    10     4    18 1   
    11     4    30 1   
    12     5    11 1   
    13     5    25 1   
    14     5    26 1   
    15     6     7 ar  
    16     6    11 ar  
    17     6    31 1   
    18     7     8 ar  
    19     7    52 1   
    20     8     9 ar  
    21     9    10 ar  
    22     9    32 1   
    23    10    11 ar  
    24    12    13 1   
    25    12    33 1   
    26    12    34 1   
    27    13    14 ar  
    28    13    17 ar  
    29    14    35 1   
    30    15    16 ar  
    31    15    36 1   
    32    16    17 ar  
    33    16    37 1   
    34    17    38 1   
    35    18    19 1   
    36    18    39 1   
    37    18    40 1   
    38    19    20 1   
    39    19    41 1   
    40    19    42 1   
    41    20    21 1   
    42    20    43 1   
    43    20    44 1   
    44    21    22 1   
    45    21    45 1   
    46    21    46 1   
    47    22    23 1   
    48    22    47 1   
    49    22    48 1   
    50    23    49 1   
    51    23    50 1   
    52    23    51 1   
    53    24    52 2   
@<TRIPOS>SUBSTRUCTURE
     1 22Z         1 TEMP              0 ****  ****    0 ROOT
