@<TRIPOS>MOLECULE
22Z
   52    53     1     0     0
SMALL
abcg2


@<TRIPOS>ATOM
      1 N01          2.3270     0.2610     0.0190 nu         1 22Z      -0.950200
      2 N02          3.4290    -3.7650    -0.3620 nt         1 22Z      -0.595000
      3 N03          5.0690     3.5990    -1.1410 nb         1 22Z      -0.664000
      4 N04         -2.2740    -0.8980     0.1070 nu         1 22Z      -0.943200
      5 N05         -1.5300    -3.7420     0.3040 no         1 22Z       0.720200
      6 C06          0.7500    -3.0100     0.1680 ca         1 22Z       0.074000
      7 C07          1.7570    -2.0830     0.0760 ca         1 22Z      -0.304600
      8 C08          1.3870    -0.6930     0.0540 ca         1 22Z       0.474000
      9 C09          0.0330    -0.3560     0.0450 ca         1 22Z      -0.365000
     10 C10         -1.0000    -1.3010     0.1130 ca         1 22Z       0.487000
     11 C11         -0.6060    -2.6780     0.1960 ca         1 22Z      -0.361200
     12 C13          2.0450     1.6770    -0.0100 c3         1 22Z       0.281100
     13 C14          3.3300     2.4490     0.0450 ca         1 22Z      -0.173300
     14 C15          3.9230     2.9300    -1.1170 ca         1 22Z       0.356900
     15 C16          5.6840     3.8150     0.0160 ca         1 22Z       0.348900
     16 C17          5.1860     3.3790     1.2350 ca         1 22Z      -0.164000
     17 C18          3.9880     2.6840     1.2470 ca         1 22Z      -0.051000
     18 C19         -2.7010     0.4800     0.0190 c3         1 22Z       0.224800
     19 C20         -4.2190     0.5570     0.0460 c3         1 22Z      -0.096400
     20 C21         -4.7270     1.9870    -0.0820 c3         1 22Z      -0.072400
     21 C22         -6.2470     2.0750    -0.0370 c3         1 22Z      -0.076400
     22 C23         -6.7730     3.4970    -0.1900 c3         1 22Z      -0.074400
     23 C24         -8.2930     3.5720    -0.1410 c3         1 22Z      -0.089100
     24 O25          4.0950    -1.7400     0.3340 o          1 22Z      -0.649100
     25 O26         -1.1190    -4.8840     0.3940 o          1 22Z      -0.444000
     26 O27         -2.7310    -3.4960     0.3040 o          1 22Z      -0.444000
     27 HN01         3.2840    -0.0530     0.1160 hn         1 22Z       0.544000
     28 HN02         2.7340    -4.3620    -0.7730 hn         1 22Z       0.319000
     29 HN0A         4.3830    -4.0850    -0.4000 hn         1 22Z       0.319000
     30 HN04        -2.9800    -1.6140     0.1520 hn         1 22Z       0.535000
     31 H06          1.0000    -4.0590     0.2400 ha         1 22Z       0.140000
     32 H09         -0.2380     0.6880    -0.0050 ha         1 22Z       0.122000
     33 H13          1.4950     1.9390    -0.9200 h1         1 22Z       0.050700
     34 H13A         1.4090     1.9600     0.8360 h1         1 22Z       0.050700
     35 H15          3.4380     2.7670    -2.0740 h4         1 22Z       0.021100
     36 H16          6.6180     4.3640    -0.0260 h4         1 22Z       0.022100
     37 H17          5.7240     3.5830     2.1500 ha         1 22Z       0.129000
     38 H18          3.5650     2.3330     2.1810 ha         1 22Z       0.124000
     39 H19         -2.2880     1.0580     0.8530 h1         1 22Z       0.045700
     40 H19A        -2.3230     0.9360    -0.9030 h1         1 22Z       0.045700
     41 H20         -4.6260    -0.0480    -0.7710 hc         1 22Z       0.054200
     42 H20A        -4.5860     0.1180     0.9790 hc         1 22Z       0.054200
     43 H21         -4.3030     2.5990     0.7220 hc         1 22Z       0.039700
     44 H21A        -4.3650     2.4210    -1.0200 hc         1 22Z       0.039700
     45 H22         -6.6700     1.4470    -0.8300 hc         1 22Z       0.041200
     46 H22A        -6.6070     1.6540     0.9080 hc         1 22Z       0.041200
     47 H23         -6.3500     4.1260     0.5990 hc         1 22Z       0.036700
     48 H23A        -6.4160     3.9150    -1.1360 hc         1 22Z       0.036700
     49 H24         -8.6770     3.2010     0.8100 hc         1 22Z       0.033367
     50 H24A        -8.6470     4.5970    -0.2630 hc         1 22Z       0.033367
     51 H24B        -8.7420     2.9710    -0.9340 hc         1 22Z       0.033367
     52 C12          3.1790    -2.5060     0.0280 c          1 22Z       0.640700
@<TRIPOS>BOND
     1     1     8 1   
     2     1    12 1   
     3     1    27 1   
     4     2    28 1   
     5     2    29 1   
     6     2    52 1   
     7     3    14 ar  
     8     3    15 ar  
     9     4    10 1   
    10     4    18 1   
    11     4    30 1   
    12     5    11 1   
    13     5    25 1   
    14     5    26 1   
    15     6     7 ar  
    16     6    11 ar  
    17     6    31 1   
    18     7     8 ar  
    19     7    52 1   
    20     8     9 ar  
    21     9    10 ar  
    22     9    32 1   
    23    10    11 ar  
    24    12    13 1   
    25    12    33 1   
    26    12    34 1   
    27    13    14 ar  
    28    13    17 ar  
    29    14    35 1   
    30    15    16 ar  
    31    15    36 1   
    32    16    17 ar  
    33    16    37 1   
    34    17    38 1   
    35    18    19 1   
    36    18    39 1   
    37    18    40 1   
    38    19    20 1   
    39    19    41 1   
    40    19    42 1   
    41    20    21 1   
    42    20    43 1   
    43    20    44 1   
    44    21    22 1   
    45    21    45 1   
    46    21    46 1   
    47    22    23 1   
    48    22    47 1   
    49    22    48 1   
    50    23    49 1   
    51    23    50 1   
    52    23    51 1   
    53    24    52 2   
@<TRIPOS>SUBSTRUCTURE
     1 22Z         1 TEMP              0 ****  ****    0 ROOT
