@<TRIPOS>MOLECULE
230
   56    59     1     0     0
SMALL
No Charge or Current Charge


@<TRIPOS>ATOM
      1 N1          -1.1650     1.4060    -0.3540 ns         1 230      -0.137000
      2 N3          -6.4480    -0.6280     0.2970 n          1 230      -0.197200
      3 C4          -2.4690     0.8700    -0.1460 ca         1 230      -0.039000
      4 C5          -3.4930     1.2530    -1.0380 ca         1 230       0.118000
      5 C6          -4.8000     0.7630    -0.8920 ca         1 230      -0.095000
      6 C7           0.0210     1.2840     0.3610 c          1 230       0.612100
      7 C8           6.8520    -3.2630     0.0680 ca         1 230       0.095000
      8 C10          6.4470    -0.9030     0.4930 ca         1 230      -0.135000
      9 C13          5.5260    -3.4090    -0.3670 ca         1 230      -0.077500
     10 C15         -7.1590    -1.3330    -0.6970 c          1 230       0.555200
     11 C17         -9.0940    -1.3620     0.8990 cc         1 230      -0.085000
     12 C20          1.1200     3.5610     0.2020 c5         1 230      -0.089400
     13 C21          1.1270     2.1110    -0.3770 c5         1 230       0.047700
     14 C22          3.4080     2.8120     0.3180 c5         1 230       0.071000
     15 C1          -5.1100    -0.1220     0.1550 ca         1 230       0.016600
     16 C2          -4.0930    -0.5190     1.0450 ca         1 230      -0.093000
     17 C3          -2.7830    -0.0280     0.8990 ca         1 230      -0.109000
     18 F1          -3.2220     2.1070    -2.0510 f          1 230      -0.182000
     19 O1           0.1600     0.6420     1.3990 o          1 230      -0.559100
     20 C9           7.3140    -2.0100     0.4990 ca         1 230      -0.077500
     21 C11          5.1140    -1.0340     0.0580 ca         1 230      -0.007000
     22 C12          4.6580    -2.3010    -0.3730 ca         1 230      -0.135000
     23 N2           4.2990     0.1310     0.0820 ns         1 230      -0.159000
     24 C14         -7.0070    -0.2610     1.5240 cd         1 230      -0.024400
     25 C16         -8.5390    -1.6970    -0.3180 cd         1 230      -0.319200
     26 C18         -8.3030    -0.6210     1.8360 cc         1 230      -0.301000
     27 O2          -6.6770    -1.6290    -1.7820 o          1 230      -0.538000
     28 C19          2.5560     4.0420    -0.1020 c5         1 230       0.156300
     29 N4           2.5350     1.6910    -0.1070 n          1 230      -0.422800
     30 O3           2.8420     5.1620     0.7710 os         1 230      -0.439000
     31 C23          2.9800     0.3630    -0.2860 c          1 230       0.672100
     32 O4           2.2330    -0.4900    -0.7450 o          1 230      -0.616100
     33 HN1         -1.0940     1.9870    -1.1800 hn         1 230       0.166000
     34 H6          -5.5710     1.0750    -1.5910 ha         1 230       0.147000
     35 H10          6.8180     0.0640     0.8290 ha         1 230       0.128000
     36 H13          5.1700    -4.3810    -0.6990 ha         1 230       0.129500
     37 H17        -10.1170    -1.6410     1.1540 ha         1 230       0.186000
     38 H201         0.3580     4.1960    -0.2640 hc         1 230       0.076700
     39 H202         0.9320     3.5620     1.2830 hc         1 230       0.076700
     40 H21          0.9330     2.1050    -1.4590 h1         1 230       0.073700
     41 H221         4.3780     2.8060    -0.1960 h1         1 230       0.057700
     42 H222         3.5780     2.7830     1.4030 h1         1 230       0.057700
     43 H2          -4.3160    -1.2170     1.8480 ha         1 230       0.130000
     44 H3          -2.0290    -0.3630     1.6050 ha         1 230       0.154000
     45 H9           8.3410    -1.8970     0.8360 ha         1 230       0.129500
     46 H12          3.6390    -2.4520    -0.7140 ha         1 230       0.128000
     47 HN2          4.7720     0.9480     0.4420 hn         1 230       0.152000
     48 H14         -6.3590     0.3170     2.1790 h4         1 230       0.203000
     49 H16         -9.0890    -2.2490    -1.0710 ha         1 230       0.209000
     50 H18         -8.7390    -0.3420     2.7930 ha         1 230       0.200000
     51 H19          2.6930     4.3170    -1.1570 h1         1 230       0.045700
     52 C24          4.1440     5.7650     0.6620 c3         1 230       0.142900
     53 Cl1          7.9340    -4.6500     0.0750 cl         1 230      -0.205000
     54 H241         4.9340     5.0510     0.9270 h1         1 230       0.034033
     55 H242         4.3250     6.1200    -0.3610 h1         1 230       0.034033
     56 H243         4.2230     6.6250     1.3400 h1         1 230       0.034033
@<TRIPOS>BOND
     1     1     3 1   
     2     1     6 1   
     3     1    33 1   
     4     2    10 1   
     5     2    15 1   
     6     2    24 1   
     7     3     4 ar  
     8     3    17 ar  
     9     4     5 ar  
    10     4    18 1   
    11     5    15 ar  
    12     5    34 1   
    13     6    13 1   
    14     6    19 2   
    15     7     9 ar  
    16     7    20 ar  
    17     7    53 1   
    18     8    20 ar  
    19     8    21 ar  
    20     8    35 1   
    21     9    22 ar  
    22     9    36 1   
    23    10    25 1   
    24    10    27 2   
    25    11    25 2   
    26    11    26 1   
    27    11    37 1   
    28    12    13 1   
    29    12    28 1   
    30    12    38 1   
    31    12    39 1   
    32    13    29 1   
    33    13    40 1   
    34    14    28 1   
    35    14    29 1   
    36    14    41 1   
    37    14    42 1   
    38    15    16 ar  
    39    16    17 ar  
    40    16    43 1   
    41    17    44 1   
    42    20    45 1   
    43    21    22 ar  
    44    21    23 1   
    45    22    46 1   
    46    23    31 1   
    47    23    47 1   
    48    24    26 2   
    49    24    48 1   
    50    25    49 1   
    51    26    50 1   
    52    28    30 1   
    53    28    51 1   
    54    29    31 1   
    55    30    52 1   
    56    31    32 2   
    57    52    54 1   
    58    52    55 1   
    59    52    56 1   
@<TRIPOS>SUBSTRUCTURE
     1 230         1 TEMP              0 ****  ****    0 ROOT
