@<TRIPOS>MOLECULE
231
   19    20     1     0     0
SMALL
abcg2


@<TRIPOS>ATOM
      1 CAI         -2.9680     0.7340     0.0020 cc         1 231       0.390400
      2 NAJ         -3.0820    -0.6080    -0.0230 na         1 231      -0.299500
      3 CAK         -1.8270    -1.1310    -0.0280 cc         1 231      -0.215000
      4 NAH         -1.7160     1.1060     0.0130 nd         1 231      -0.670000
      5 CAG         -0.9800    -0.0500    -0.0050 cd         1 231       0.295500
      6 CAD          0.4830    -0.0350    -0.0010 ca         1 231      -0.102500
      7 CAB          1.1770     1.1770     0.0030 ca         1 231      -0.095500
      8 CAF          1.2200    -1.2220    -0.0020 ca         1 231      -0.095500
      9 CAE          2.6060    -1.1970    -0.0000 ca         1 231      -0.115000
     10 CAC          3.2870     0.0150     0.0030 ca         1 231      -0.111000
     11 CAA          2.5640     1.2000     0.0050 ca         1 231      -0.115000
     12 HAI         -3.8250     1.3890     0.0100 h5         1 231       0.056100
     13 HNAJ        -3.9430    -1.1330    -0.0400 hn         1 231       0.353000
     14 HAK         -1.6530    -2.1930    -0.0480 h4         1 231       0.158000
     15 HAB          0.6210     2.1060     0.0040 ha         1 231       0.118500
     16 HAF          0.7130    -2.1790    -0.0040 ha         1 231       0.118500
     17 HAE          3.1580    -2.1280    -0.0010 ha         1 231       0.110000
     18 HAC          4.3690     0.0340     0.0040 ha         1 231       0.110000
     19 HAA          3.0820     2.1510     0.0070 ha         1 231       0.110000
@<TRIPOS>BOND
     1     1     2 1   
     2     1     4 2   
     3     1    12 1   
     4     2     3 1   
     5     2    13 1   
     6     3     5 2   
     7     3    14 1   
     8     4     5 1   
     9     5     6 1   
    10     6     7 ar  
    11     6     8 ar  
    12     7    11 ar  
    13     7    15 1   
    14     8     9 ar  
    15     8    16 1   
    16     9    10 ar  
    17     9    17 1   
    18    10    11 ar  
    19    10    18 1   
    20    11    19 1   
@<TRIPOS>SUBSTRUCTURE
     1 231         1 TEMP              0 ****  ****    0 ROOT
