@<TRIPOS>MOLECULE
231
   19    20     1     0     0
SMALL
No Charge or Current Charge


@<TRIPOS>ATOM
      1 CAI         -3.0270     0.7380    -0.0080 cc         1 231       0.390400
      2 NAJ         -3.1050    -0.6330    -0.0180 na         1 231      -0.299500
      3 CAK         -1.8170    -1.1320    -0.0180 cc         1 231      -0.215000
      4 NAH         -1.7620     1.1290    -0.0020 nd         1 231      -0.670000
      5 CAG         -1.0020    -0.0260    -0.0080 cd         1 231       0.295500
      6 CAD          0.4780    -0.0150    -0.0040 ca         1 231      -0.102500
      7 CAB          1.1940     1.2040     0.0070 ca         1 231      -0.095500
      8 CAF          1.2080    -1.2260    -0.0110 ca         1 231      -0.095500
      9 CAE          2.6140    -1.2160    -0.0070 ca         1 231      -0.115000
     10 CAC          3.3110     0.0020     0.0040 ca         1 231      -0.111000
     11 CAA          2.6000     1.2120     0.0110 ca         1 231      -0.115000
     12 HAI         -3.9050     1.3750    -0.0060 h5         1 231       0.056100
     13 HNAJ        -3.9680    -1.1650    -0.0240 hn         1 231       0.353000
     14 HAK         -1.5890    -2.1910    -0.0250 h4         1 231       0.158000
     15 HAB          0.6640     2.1540     0.0120 ha         1 231       0.118500
     16 HAF          0.6920    -2.1830    -0.0190 ha         1 231       0.118500
     17 HAE          3.1630    -2.1560    -0.0120 ha         1 231       0.110000
     18 HAC          4.3990     0.0080     0.0070 ha         1 231       0.110000
     19 HAA          3.1380     2.1570     0.0190 ha         1 231       0.110000
@<TRIPOS>BOND
     1     1     2 1   
     2     1     4 2   
     3     1    12 1   
     4     2     3 1   
     5     2    13 1   
     6     3     5 2   
     7     3    14 1   
     8     4     5 1   
     9     5     6 1   
    10     6     7 ar  
    11     6     8 ar  
    12     7    11 ar  
    13     7    15 1   
    14     8     9 ar  
    15     8    16 1   
    16     9    10 ar  
    17     9    17 1   
    18    10    11 ar  
    19    10    18 1   
    20    11    19 1   
@<TRIPOS>SUBSTRUCTURE
     1 231         1 TEMP              0 ****  ****    0 ROOT
