@<TRIPOS>MOLECULE
232
  113   122     1     0     0
SMALL
No Charge or Current Charge


@<TRIPOS>ATOM
      1 C1           8.8440    -1.1540    -0.1520 ca         1 232      -0.029500
      2 N2           7.6110    -1.7370     0.1540 na         1 232       0.065800
      3 C3           7.5760    -3.0490     0.6250 ca         1 232      -0.084800
      4 C4           8.7600    -3.7850     0.7890 ca         1 232      -0.073500
      5 C5          11.1840    -3.9630     0.6560 ca         1 232      -0.098000
      6 C6          12.4420    -3.4100     0.3590 ca         1 232      -0.040000
      7 N7          13.5750    -1.3150    -0.4740 na         1 232      -0.180600
      8 C8          13.9820     1.0280    -1.3340 ca         1 232      -0.076500
      9 C9          13.3240     2.2180    -1.7020 ca         1 232      -0.139000
     10 C11         11.1450     1.2080    -1.1710 ca         1 232      -0.122500
     11 C12         10.0030    -3.2010     0.4800 ca         1 232       0.001000
     12 C13         12.4730    -2.0950    -0.1090 ca         1 232      -0.000200
     13 C14         13.1930    -0.0380    -0.8940 ca         1 232      -0.045200
     14 C15         11.8010     0.0100    -0.8000 cp         1 232      -0.048500
     15 C16         11.3340    -1.3030    -0.2980 cp         1 232      -0.088000
     16 C17         10.0560    -1.8600     0.0010 ca         1 232      -0.010500
     17 C19          6.3650    -0.9620     0.0170 c3         1 232       0.025600
     18 C10         11.9070     2.3090    -1.6210 ca         1 232       0.143600
     19 O10         11.2210     3.4550    -1.9710 os         1 232      -0.343100
     20 C18         11.8890     4.6400    -2.4430 c3         1 232       0.143400
     21 C20          6.0210    -0.1580     1.2900 c3         1 232       0.155300
     22 N21          4.8540     0.7510     1.1530 n3         1 232      -0.724100
     23 C22          4.7320     1.6690     2.3180 c6         1 232       0.168300
     24 C23          3.6050     2.7080     2.1120 c6         1 232      -0.073400
     25 C24          2.2410     2.0190     1.8470 c6         1 232      -0.060700
     26 C25          2.3990     1.0270     0.6620 c6         1 232      -0.073400
     27 C26          3.5670     0.0390     0.9000 c6         1 232       0.168300
     28 C27          1.1150     3.0740     1.6170 c3         1 232      -0.071400
     29 C28         -0.3150     2.5000     1.4830 c3         1 232      -0.073400
     30 C7          -9.4180     0.5140    -1.0490 ca         1 232      -0.029500
     31 N1          -8.8380     1.6820    -1.5520 na         1 232       0.065800
     32 C21         -9.6510     2.6430    -2.1510 ca         1 232      -0.084800
     33 C29        -11.0380     2.4480    -2.2540 ca         1 232      -0.073500
     34 C30        -13.0250     1.0980    -1.8630 ca         1 232      -0.098000
     35 C31        -13.6440    -0.0630    -1.3690 ca         1 232      -0.040000
     36 N3         -13.1800    -2.2510    -0.1990 na         1 232      -0.180600
     37 C32        -11.9950    -4.1710     0.9420 ca         1 232      -0.076500
     38 C33        -10.7250    -4.6200     1.3540 ca         1 232      -0.139000
     39 CB          -9.6860    -2.5730     0.4720 ca         1 232      -0.122500
     40 CC         -11.6240     1.2720    -1.7480 ca         1 232       0.001000
     41 CD         -12.8270    -1.0220    -0.7670 ca         1 232      -0.000200
     42 CE         -12.0670    -2.9300     0.3050 ca         1 232      -0.045200
     43 CF         -10.9600    -2.1170     0.0560 cp         1 232      -0.048500
     44 CG         -11.4390    -0.8940    -0.6300 cp         1 232      -0.088000
     45 CH         -10.8070     0.2810    -1.1320 ca         1 232      -0.010500
     46 CJ          -7.3880     1.9110    -1.4180 c3         1 232       0.025600
     47 CA          -9.5720    -3.8230     1.1190 ca         1 232       0.143600
     48 OA          -8.3070    -4.2230     1.5060 os         1 232      -0.343100
     49 CI          -8.0660    -5.4760     2.1730 c3         1 232       0.143400
     50 NL          -5.5780     2.9290     0.0640 n3         1 232      -0.724100
     51 CM          -5.3350     3.7710     1.2680 c6         1 232       0.168300
     52 CN          -3.8720     4.2690     1.3320 c6         1 232      -0.073400
     53 CO          -2.8700     3.0860     1.3140 c6         1 232      -0.060700
     54 CP          -3.1700     2.1910     0.0810 c6         1 232      -0.073400
     55 CQ          -4.6560     1.7560     0.0420 c6         1 232       0.168300
     56 CR          -1.3970     3.5990     1.3550 c3         1 232      -0.071400
     57 H1           8.8090    -0.1330    -0.5080 h4         1 232       0.176000
     58 H3           6.6030    -3.4830     0.8620 h4         1 232       0.175000
     59 H4           8.7090    -4.8080     1.1580 ha         1 232       0.164000
     60 H5          11.1260    -4.9850     1.0230 ha         1 232       0.145500
     61 H6          13.3550    -3.9860     0.4900 ha         1 232       0.147500
     62 H7          14.5370    -1.6370    -0.4370 hn         1 232       0.376000
     63 H8          15.0660     0.9430    -1.3910 ha         1 232       0.136500
     64 H9          13.9230     3.0560    -2.0460 ha         1 232       0.138000
     65 H11         10.0720     1.3180    -1.1240 ha         1 232       0.117000
     66 H191         6.4680    -0.2680    -0.8260 h1         1 232       0.096700
     67 H192         5.5480    -1.6520    -0.2220 h1         1 232       0.096700
     68 H181        11.1570     5.4270    -2.6630 h1         1 232       0.051033
     69 H182        12.5830     5.0250    -1.6860 h1         1 232       0.051033
     70 H183        12.4500     4.4320    -3.3640 h1         1 232       0.051033
     71 H201         5.8550    -0.8630     2.1170 h1         1 232       0.048700
     72 H202         6.9090     0.4340     1.5520 h1         1 232       0.048700
     73 H221         4.5290     1.0960     3.2350 h1         1 232       0.033200
     74 H222         5.6770     2.2090     2.4780 h1         1 232       0.033200
     75 H231         3.5370     3.3520     3.0000 hc         1 232       0.055200
     76 H232         3.8660     3.3630     1.2690 hc         1 232       0.055200
     77 H24          1.9610     1.4500     2.7460 hc         1 232       0.046200
     78 H251         1.4770     0.4520     0.5150 hc         1 232       0.055200
     79 H252         2.5770     1.5810    -0.2700 hc         1 232       0.055200
     80 H261         3.6450    -0.6080     0.0160 h1         1 232       0.033200
     81 H262         3.3190    -0.6100     1.7540 h1         1 232       0.033200
     82 H271         1.1180     3.7830     2.4540 hc         1 232       0.046700
     83 H272         1.3410     3.6650     0.7200 hc         1 232       0.046700
     84 H281        -0.3590     1.8500     0.6020 hc         1 232       0.036200
     85 H282        -0.5370     1.8760     2.3580 hc         1 232       0.036200
     86 H12         -9.1780     3.5490    -2.5320 h4         1 232       0.175000
     87 H13        -11.6540     3.2120    -2.7250 ha         1 232       0.164000
     88 H14        -13.6350     1.8640    -2.3370 ha         1 232       0.145500
     89 H15        -14.7190    -0.2070    -1.4510 ha         1 232       0.147500
     90 H16        -14.1290    -2.6050    -0.1580 hn         1 232       0.376000
     91 H17        -12.8870    -4.7700     1.1150 ha         1 232       0.136500
     92 H21        -10.6530    -5.5840     1.8510 ha         1 232       0.138000
     93 H29         -8.7860    -1.9980     0.3130 ha         1 232       0.117000
     94 H193        -7.0520     2.5620    -2.2340 h1         1 232       0.096700
     95 H194        -6.8720     0.9510    -1.5280 h1         1 232       0.096700
     96 H184        -8.6100    -5.5230     3.1250 h1         1 232       0.051033
     97 H185        -8.3790    -6.3200     1.5450 h1         1 232       0.051033
     98 H186        -6.9960    -5.5920     2.3880 h1         1 232       0.051033
     99 H223        -5.5620     3.2030     2.1820 h1         1 232       0.033200
    100 H224        -6.0010     4.6470     1.2600 h1         1 232       0.033200
    101 H233        -3.7330     4.8700     2.2420 hc         1 232       0.055200
    102 H234        -3.6810     4.9390     0.4830 hc         1 232       0.055200
    103 H30         -3.0220     2.4910     2.2260 hc         1 232       0.046200
    104 H253        -2.9260     2.7310    -0.8440 hc         1 232       0.055200
    105 H254        -2.5420     1.2910     0.0950 hc         1 232       0.055200
    106 H263        -4.8590     1.0980     0.9000 h1         1 232       0.033200
    107 H264        -4.8060     1.1570    -0.8670 h1         1 232       0.033200
    108 H273        -1.2840     4.2850     2.2040 hc         1 232       0.046700
    109 H274        -1.1880     4.1930     0.4570 hc         1 232       0.046700
    110 CK          -7.0120     2.5630    -0.0690 c3         1 232       0.155300
    111 H10         -8.7380    -0.1940    -0.5920 h4         1 232       0.176000
    112 H203        -7.3040     1.8840     0.7450 h1         1 232       0.048700
    113 H204        -7.6260     3.4680     0.0380 h1         1 232       0.048700
@<TRIPOS>BOND
     1     1     2 1   
     2     1    16 ar  
     3     1    57 1   
     4     2     3 2   
     5     2    17 1   
     6     3     4 ar  
     7     3    58 1   
     8     4    11 ar  
     9     4    59 1   
    10     5     6 ar  
    11     5    11 ar  
    12     5    60 1   
    13     6    12 ar  
    14     6    61 1   
    15     7    12 1   
    16     7    13 1   
    17     7    62 1   
    18     8     9 ar  
    19     8    13 ar  
    20     8    63 1   
    21     9    18 ar  
    22     9    64 1   
    23    10    14 ar  
    24    10    18 ar  
    25    10    65 1   
    26    11    16 ar  
    27    12    15 ar  
    28    13    14 ar  
    29    14    15 1   
    30    15    16 ar  
    31    17    21 1   
    32    17    66 1   
    33    17    67 1   
    34    18    19 1   
    35    19    20 1   
    36    20    68 1   
    37    20    69 1   
    38    20    70 1   
    39    21    22 1   
    40    21    71 1   
    41    21    72 1   
    42    22    23 1   
    43    22    27 1   
    44    23    24 1   
    45    23    73 1   
    46    23    74 1   
    47    24    25 1   
    48    24    75 1   
    49    24    76 1   
    50    25    26 1   
    51    25    28 1   
    52    25    77 1   
    53    26    27 1   
    54    26    78 1   
    55    26    79 1   
    56    27    80 1   
    57    27    81 1   
    58    28    29 1   
    59    28    82 1   
    60    28    83 1   
    61    29    56 1   
    62    29    84 1   
    63    29    85 1   
    64    30    31 1   
    65    30    45 ar  
    66    30   111 1   
    67    31    32 2   
    68    31    46 1   
    69    32    33 ar  
    70    32    86 1   
    71    33    40 ar  
    72    33    87 1   
    73    34    35 ar  
    74    34    40 ar  
    75    34    88 1   
    76    35    41 ar  
    77    35    89 1   
    78    36    41 1   
    79    36    42 1   
    80    36    90 1   
    81    37    38 ar  
    82    37    42 ar  
    83    37    91 1   
    84    38    47 ar  
    85    38    92 1   
    86    39    43 ar  
    87    39    47 ar  
    88    39    93 1   
    89    40    45 ar  
    90    41    44 ar  
    91    42    43 ar  
    92    43    44 1   
    93    44    45 ar  
    94    46    94 1   
    95    46    95 1   
    96    46   110 1   
    97    47    48 1   
    98    48    49 1   
    99    49    96 1   
   100    49    97 1   
   101    49    98 1   
   102    50    51 1   
   103    50    55 1   
   104    50   110 1   
   105    51    52 1   
   106    51    99 1   
   107    51   100 1   
   108    52    53 1   
   109    52   101 1   
   110    52   102 1   
   111    53    54 1   
   112    53    56 1   
   113    53   103 1   
   114    54    55 1   
   115    54   104 1   
   116    54   105 1   
   117    55   106 1   
   118    55   107 1   
   119    56   108 1   
   120    56   109 1   
   121   110   112 1   
   122   110   113 1   
@<TRIPOS>SUBSTRUCTURE
     1 232         1 TEMP              0 ****  ****    0 ROOT
