@<TRIPOS>MOLECULE
232
  113   122     1     0     0
SMALL
abcg2


@<TRIPOS>ATOM
      1 C1           8.3430    -0.9560    -0.2040 ca         1 232      -0.029500
      2 N2           7.0450    -1.1870    -0.0910 na         1 232       0.065800
      3 C3           6.5690    -2.3910     0.3180 ca         1 232      -0.084800
      4 C4           7.4290    -3.3980     0.6230 ca         1 232      -0.073500
      5 C5           9.7350    -4.2410     0.8370 ca         1 232      -0.098000
      6 C6          11.0800    -4.0410     0.7370 ca         1 232      -0.040000
      7 N7          12.8320    -2.3890     0.1450 na         1 232      -0.180600
      8 C8          13.9390    -0.2770    -0.5890 ca         1 232      -0.076500
      9 C9          13.6940     1.0140    -1.0180 ca         1 232      -0.139000
     10 C11         11.2970     0.6800    -0.8520 ca         1 232      -0.122500
     11 C12          8.8190    -3.2070     0.5210 ca         1 232       0.001000
     12 C13         11.5470    -2.7830     0.3070 ca         1 232      -0.000200
     13 C14         12.8550    -1.0890    -0.2910 ca         1 232      -0.045200
     14 C15         11.5270    -0.6260    -0.4150 cp         1 232      -0.048500
     15 C16         10.6890    -1.7260    -0.0240 cp         1 232      -0.088000
     16 C17          9.2930    -1.9360     0.0870 ca         1 232      -0.010500
     17 C19          6.0780    -0.1090    -0.3440 c3         1 232       0.025600
     18 C10         12.3790     1.4940    -1.1520 ca         1 232       0.143600
     19 O10         12.0820     2.7440    -1.5680 os         1 232      -0.343100
     20 C18         13.1400     3.6210    -1.8980 c3         1 232       0.143400
     21 C20          5.6350     0.5360     0.9700 c3         1 232       0.155300
     22 N21          4.5120     1.4120     0.7330 n3         1 232      -0.724100
     23 C22          4.4500     2.5040     1.6920 c6         1 232       0.168300
     24 C23          3.3290     3.4700     1.3460 c6         1 232      -0.073400
     25 C24          1.9780     2.7630     1.2840 c6         1 232      -0.060700
     26 C25          2.0920     1.5840     0.3200 c6         1 232      -0.073400
     27 C26          3.2560     0.6800     0.6910 c6         1 232       0.168300
     28 C27          0.8500     3.7270     0.9280 c3         1 232      -0.071400
     29 C28         -0.5410     3.1040     0.9860 c3         1 232      -0.073400
     30 C7          -9.2560     0.4750    -0.7480 ca         1 232      -0.029500
     31 N1          -9.0370     1.7370    -1.0850 na         1 232       0.065800
     32 C21        -10.0600     2.6060    -1.2850 ca         1 232      -0.084800
     33 C29        -11.3470     2.1860    -1.1550 ca         1 232      -0.073500
     34 C30        -12.9680     0.3940    -0.6640 ca         1 232      -0.098000
     35 C31        -13.2300    -0.8990    -0.3210 ca         1 232      -0.040000
     36 N3         -12.1980    -3.0840     0.2450 na         1 232      -0.180600
     37 C32        -10.4870    -4.8410     0.7080 ca         1 232      -0.076500
     38 C33         -9.1270    -5.0770     0.7680 ca         1 232      -0.139000
     39 CB          -8.6390    -2.7860     0.1390 ca         1 232      -0.122500
     40 CC         -11.6350     0.8550    -0.8050 ca         1 232       0.001000
     41 CD         -12.1490    -1.7770    -0.1050 ca         1 232      -0.000200
     42 CE         -10.9210    -3.5680     0.3640 ca         1 232      -0.045200
     43 CF         -10.0100    -2.5300     0.0740 cp         1 232      -0.048500
     44 CG         -10.8120    -1.3770    -0.2300 cp         1 232      -0.088000
     45 CH         -10.5430    -0.0340    -0.5910 ca         1 232      -0.010500
     46 CJ          -7.6540     2.2280    -1.1590 c3         1 232       0.025600
     47 CA          -8.2020    -4.0550     0.4880 ca         1 232       0.143600
     48 OA          -6.8640    -4.2290     0.5380 os         1 232      -0.343100
     49 CI          -6.3540    -5.4790     0.9530 c3         1 232       0.143400
     50 NL          -5.8170     3.1460     0.1620 n3         1 232      -0.724100
     51 CM          -5.5210     4.0870     1.2310 c6         1 232       0.168300
     52 CN          -4.1190     4.6560     1.0890 c6         1 232      -0.073400
     53 CO          -3.0620     3.5570     1.0610 c6         1 232      -0.060700
     54 CP          -3.4380     2.5480    -0.0200 c6         1 232      -0.073400
     55 CQ          -4.8630     2.0480     0.1570 c6         1 232       0.168300
     56 CR          -1.6600     4.1340     0.8800 c3         1 232      -0.071400
     57 H1           8.6190     0.0330    -0.5360 h4         1 232       0.176000
     58 H3           5.4970    -2.4920     0.3790 h4         1 232       0.175000
     59 H4           7.0300    -4.3490     0.9450 ha         1 232       0.164000
     60 H5           9.3500    -5.1970     1.1650 ha         1 232       0.145500
     61 H6          11.7780    -4.8300     0.9810 ha         1 232       0.147500
     62 H7          13.6430    -2.9620     0.3160 hn         1 232       0.376000
     63 H8          14.9550    -0.6360    -0.4890 ha         1 232       0.136500
     64 H9          14.5410     1.6450    -1.2480 ha         1 232       0.138000
     65 H11         10.3010     1.0830    -0.9700 ha         1 232       0.117000
     66 H191         6.5480     0.6260    -0.9930 h1         1 232       0.096700
     67 H192         5.2420    -0.5450    -0.8870 h1         1 232       0.096700
     68 H181        12.6790     4.5560    -2.2090 h1         1 232       0.051033
     69 H182        13.7910     3.8200    -1.0420 h1         1 232       0.051033
     70 H183        13.7480     3.2390    -2.7220 h1         1 232       0.051033
     71 H201         5.4140    -0.2400     1.7200 h1         1 232       0.048700
     72 H202         6.4720     1.1150     1.3650 h1         1 232       0.048700
     73 H221         4.3020     2.1280     2.7200 h1         1 232       0.033200
     74 H222         5.4070     3.0300     1.6840 h1         1 232       0.033200
     75 H231         3.3070     4.2710     2.0900 hc         1 232       0.055200
     76 H232         3.5450     3.9370     0.3790 hc         1 232       0.055200
     77 H24          1.7680     2.3590     2.2840 hc         1 232       0.046200
     78 H251         1.1770     0.9870     0.3210 hc         1 232       0.055200
     79 H252         2.2290     1.9580    -0.7000 hc         1 232       0.055200
     80 H261         3.3290    -0.1300    -0.0390 h1         1 232       0.033200
     81 H262         3.0480     0.2040     1.6660 h1         1 232       0.033200
     82 H271         0.8860     4.5740     1.6230 hc         1 232       0.046700
     83 H272         1.0270     4.1460    -0.0690 hc         1 232       0.046700
     84 H281        -0.6450     2.3610     0.1920 hc         1 232       0.036200
     85 H282        -0.6490     2.5560     1.9290 hc         1 232       0.036200
     86 H12         -9.7900     3.6160    -1.5510 h4         1 232       0.175000
     87 H13        -12.1470     2.8930    -1.3250 ha         1 232       0.164000
     88 H14        -13.7820     1.0870    -0.8310 ha         1 232       0.145500
     89 H15        -14.2490    -1.2480    -0.2110 ha         1 232       0.147500
     90 H16        -13.0400    -3.6120     0.4100 hn         1 232       0.376000
     91 H17        -11.1900    -5.6340     0.9280 ha         1 232       0.136500
     92 H21         -8.7910    -6.0680     1.0400 ha         1 232       0.138000
     93 H29         -7.8970    -2.0270    -0.0670 ha         1 232       0.117000
     94 H193        -7.6260     3.0550    -1.8650 h1         1 232       0.096700
     95 H194        -7.0420     1.4240    -1.5620 h1         1 232       0.096700
     96 H184        -6.6880    -5.7450     1.9600 h1         1 232       0.051033
     97 H185        -6.6280    -6.2850     0.2670 h1         1 232       0.051033
     98 H186        -5.2710    -5.3830     0.9590 h1         1 232       0.051033
     99 H223        -5.6210     3.6120     2.2240 h1         1 232       0.033200
    100 H224        -6.2530     4.8960     1.1940 h1         1 232       0.033200
    101 H233        -3.9320     5.3460     1.9160 hc         1 232       0.055200
    102 H234        -4.0610     5.2440     0.1660 hc         1 232       0.055200
    103 H30         -3.0900     3.0360     2.0290 hc         1 232       0.046200
    104 H253        -3.3380     3.0140    -1.0070 hc         1 232       0.055200
    105 H254        -2.7660     1.6880    -0.0060 hc         1 232       0.055200
    106 H263        -4.9310     1.4640     1.0920 h1         1 232       0.033200
    107 H264        -5.0990     1.3590    -0.6560 h1         1 232       0.033200
    108 H273        -1.5020     4.9050     1.6420 hc         1 232       0.046700
    109 H274        -1.6030     4.6470    -0.0880 hc         1 232       0.046700
    110 CK          -7.1830     2.6830     0.2210 c3         1 232       0.155300
    111 H10         -8.3750    -0.1330    -0.6120 h4         1 232       0.176000
    112 H203        -7.3240     1.8670     0.9510 h1         1 232       0.048700
    113 H204        -7.8230     3.5060     0.5460 h1         1 232       0.048700
@<TRIPOS>BOND
     1     1     2 1   
     2     1    16 ar  
     3     1    57 1   
     4     2     3 2   
     5     2    17 1   
     6     3     4 ar  
     7     3    58 1   
     8     4    11 ar  
     9     4    59 1   
    10     5     6 ar  
    11     5    11 ar  
    12     5    60 1   
    13     6    12 ar  
    14     6    61 1   
    15     7    12 1   
    16     7    13 1   
    17     7    62 1   
    18     8     9 ar  
    19     8    13 ar  
    20     8    63 1   
    21     9    18 ar  
    22     9    64 1   
    23    10    14 ar  
    24    10    18 ar  
    25    10    65 1   
    26    11    16 ar  
    27    12    15 ar  
    28    13    14 ar  
    29    14    15 1   
    30    15    16 ar  
    31    17    21 1   
    32    17    66 1   
    33    17    67 1   
    34    18    19 1   
    35    19    20 1   
    36    20    68 1   
    37    20    69 1   
    38    20    70 1   
    39    21    22 1   
    40    21    71 1   
    41    21    72 1   
    42    22    23 1   
    43    22    27 1   
    44    23    24 1   
    45    23    73 1   
    46    23    74 1   
    47    24    25 1   
    48    24    75 1   
    49    24    76 1   
    50    25    26 1   
    51    25    28 1   
    52    25    77 1   
    53    26    27 1   
    54    26    78 1   
    55    26    79 1   
    56    27    80 1   
    57    27    81 1   
    58    28    29 1   
    59    28    82 1   
    60    28    83 1   
    61    29    56 1   
    62    29    84 1   
    63    29    85 1   
    64    30    31 1   
    65    30    45 ar  
    66    30   111 1   
    67    31    32 2   
    68    31    46 1   
    69    32    33 ar  
    70    32    86 1   
    71    33    40 ar  
    72    33    87 1   
    73    34    35 ar  
    74    34    40 ar  
    75    34    88 1   
    76    35    41 ar  
    77    35    89 1   
    78    36    41 1   
    79    36    42 1   
    80    36    90 1   
    81    37    38 ar  
    82    37    42 ar  
    83    37    91 1   
    84    38    47 ar  
    85    38    92 1   
    86    39    43 ar  
    87    39    47 ar  
    88    39    93 1   
    89    40    45 ar  
    90    41    44 ar  
    91    42    43 ar  
    92    43    44 1   
    93    44    45 ar  
    94    46    94 1   
    95    46    95 1   
    96    46   110 1   
    97    47    48 1   
    98    48    49 1   
    99    49    96 1   
   100    49    97 1   
   101    49    98 1   
   102    50    51 1   
   103    50    55 1   
   104    50   110 1   
   105    51    52 1   
   106    51    99 1   
   107    51   100 1   
   108    52    53 1   
   109    52   101 1   
   110    52   102 1   
   111    53    54 1   
   112    53    56 1   
   113    53   103 1   
   114    54    55 1   
   115    54   104 1   
   116    54   105 1   
   117    55   106 1   
   118    55   107 1   
   119    56   108 1   
   120    56   109 1   
   121   110   112 1   
   122   110   113 1   
@<TRIPOS>SUBSTRUCTURE
     1 232         1 TEMP              0 ****  ****    0 ROOT
