@<TRIPOS>MOLECULE
233
   50    50     1     0     0
SMALL
abcg2


@<TRIPOS>ATOM
      1 C1           0.3150     0.3380    -3.1600 c6         1 233       0.307700
      2 C2           1.4150    -0.1050    -4.1310 c6         1 233       0.091300
      3 C3           1.0570     0.3570    -5.5370 c6         1 233       0.142300
      4 C4          -0.3360    -0.1320    -5.9220 c6         1 233       0.144300
      5 C5          -1.3230     0.3090    -4.8480 c6         1 233       0.181300
      6 C6          -2.7320    -0.1680    -5.1290 c3         1 233       0.173600
      7 O2           2.6500     0.4770    -3.7960 oh         1 233      -0.721000
      8 O3           1.9660    -0.1170    -6.4990 oh         1 233      -0.668000
      9 O4          -0.3850    -1.5320    -6.0430 oh         1 233      -0.712000
     10 O5          -0.9360    -0.1610    -3.5730 os         1 233      -0.447000
     11 O6          -3.6070     0.4580    -4.2210 oh         1 233      -0.710000
     12 N1           0.5880    -0.1390    -1.8460 ns         1 233      -0.509900
     13 O7          -0.0350     1.7280    -0.7310 o          1 233      -0.579100
     14 C7           0.3930     0.5870    -0.7170 c          1 233       0.612100
     15 C8           0.8030    -0.1210     0.5550 c3         1 233      -0.157400
     16 C9           0.1060     0.4080     1.7990 c3         1 233      -0.066400
     17 C10          0.5950    -0.2870     3.0630 c3         1 233      -0.074400
     18 C11         -0.0960     0.2340     4.3160 c3         1 233      -0.096400
     19 C12          0.4140    -0.4510     5.5730 c3         1 233       0.122000
     20 N13         -0.2640     0.0710     6.7410 ns         1 233      -0.506900
     21 C14          0.0320    -0.3400     7.9820 c          1 233       0.636100
     22 O15          0.8830    -1.1640     8.2580 o          1 233      -0.546000
     23 O16         -0.7320     0.2760     8.8920 os         1 233      -0.462100
     24 C17         -0.5230    -0.0780    10.2540 c3         1 233       0.172900
     25 H1           0.2950     1.4350    -3.1280 h2         1 233       0.084700
     26 H2           1.4740    -1.2030    -4.1190 h1         1 233       0.058700
     27 H3           1.0300     1.4590    -5.5330 h1         1 233       0.053700
     28 H4          -0.6250     0.3600    -6.8630 h1         1 233       0.052700
     29 H5          -1.3270     1.4120    -4.8560 h1         1 233       0.054700
     30 H9          -2.9720     0.0910    -6.1690 h1         1 233       0.036700
     31 H10         -2.7770    -1.2600    -5.0490 h1         1 233       0.036700
     32 H6           3.0230     0.0090    -3.0430 ho         1 233       0.514000
     33 H7           2.8580     0.1060    -6.2150 ho         1 233       0.469000
     34 H8           0.3040    -1.8000    -6.6610 ho         1 233       0.521000
     35 H11         -4.4950     0.1300    -4.3920 ho         1 233       0.504000
     36 H12          0.8620    -1.1060    -1.7460 hn         1 233       0.311500
     37 H13          1.8870     0.0050     0.6560 hc         1 233       0.056200
     38 H14          0.6380    -1.1970     0.4560 hc         1 233       0.056200
     39 H15         -0.9750     0.2720     1.7030 hc         1 233       0.058700
     40 H16          0.2760     1.4840     1.8890 hc         1 233       0.058700
     41 H17          1.6770    -0.1490     3.1580 hc         1 233       0.041200
     42 H18          0.4300    -1.3660     2.9770 hc         1 233       0.041200
     43 H19         -1.1760     0.0790     4.2290 hc         1 233       0.048200
     44 H20          0.0630     1.3140     4.3990 hc         1 233       0.048200
     45 H21          1.4930    -0.2940     5.6650 h1         1 233       0.050700
     46 H22          0.2550    -1.5310     5.4930 h1         1 233       0.050700
     47 H23         -0.9980     0.7490     6.6120 hn         1 233       0.328500
     48 H24         -1.2320     0.5130    10.8270 h1         1 233       0.047033
     49 H25         -0.7170    -1.1350    10.4320 h1         1 233       0.047033
     50 H26          0.4880     0.1600    10.5850 h1         1 233       0.047033
@<TRIPOS>BOND
     1     1     2 1   
     2     1    10 1   
     3     1    12 1   
     4     1    25 1   
     5     2     3 1   
     6     2     7 1   
     7     2    26 1   
     8     3     4 1   
     9     3     8 1   
    10     3    27 1   
    11     4     5 1   
    12     4     9 1   
    13     4    28 1   
    14     5     6 1   
    15     5    10 1   
    16     5    29 1   
    17     6    11 1   
    18     6    30 1   
    19     6    31 1   
    20     7    32 1   
    21     8    33 1   
    22     9    34 1   
    23    11    35 1   
    24    12    14 1   
    25    12    36 1   
    26    13    14 2   
    27    14    15 1   
    28    15    16 1   
    29    15    37 1   
    30    15    38 1   
    31    16    17 1   
    32    16    39 1   
    33    16    40 1   
    34    17    18 1   
    35    17    41 1   
    36    17    42 1   
    37    18    19 1   
    38    18    43 1   
    39    18    44 1   
    40    19    20 1   
    41    19    45 1   
    42    19    46 1   
    43    20    21 1   
    44    20    47 1   
    45    21    22 2   
    46    21    23 1   
    47    23    24 1   
    48    24    48 1   
    49    24    49 1   
    50    24    50 1   
@<TRIPOS>SUBSTRUCTURE
     1 233         1 TEMP              0 ****  ****    0 ROOT
