@<TRIPOS>MOLECULE
233
   50    50     1     0     0
SMALL
No Charge or Current Charge


@<TRIPOS>ATOM
      1 C1           0.1600     0.3690    -3.0090 c6         1 233       0.307700
      2 C2           1.2780     0.2510    -4.1020 c6         1 233       0.091300
      3 C3           0.7300     0.7500    -5.4750 c6         1 233       0.142300
      4 C4          -0.5990     0.0270    -5.8540 c6         1 233       0.144300
      5 C5          -1.6010     0.1730    -4.6600 c6         1 233       0.181300
      6 C6          -2.9580    -0.5610    -4.9200 c3         1 233       0.173600
      7 O2           2.4700     0.9980    -3.7520 oh         1 233      -0.721000
      8 O3           1.7260     0.5470    -6.4930 oh         1 233      -0.668000
      9 O4          -0.3100    -1.3490    -6.1790 oh         1 233      -0.712000
     10 O5          -1.0160    -0.3400    -3.4330 os         1 233      -0.447000
     11 O6          -3.9140    -0.3890    -3.8520 oh         1 233      -0.710000
     12 N1           0.5550    -0.2610    -1.7580 ns         1 233      -0.509900
     13 O7           2.0210     1.3120    -1.0720 o          1 233      -0.579100
     14 C7           1.3950     0.2910    -0.8300 c          1 233       0.612100
     15 C8           1.5490    -0.4920     0.4760 c3         1 233      -0.157400
     16 C9           0.8460     0.2250     1.6540 c3         1 233      -0.066400
     17 C10          0.9810    -0.5370     2.9900 c3         1 233      -0.074400
     18 C11          0.2810     0.1780     4.1670 c3         1 233      -0.096400
     19 C12          0.4190    -0.5840     5.4980 c3         1 233       0.122000
     20 N13         -0.2520     0.1140     6.5920 ns         1 233      -0.506900
     21 C14         -0.2820    -0.3260     7.8820 c          1 233       0.636100
     22 O15          0.2440    -1.3510     8.2860 o          1 233      -0.546000
     23 O16         -0.9890     0.5620     8.6350 os         1 233      -0.462100
     24 C17         -1.1390     0.2790    10.0380 c3         1 233       0.172900
     25 H1          -0.0870     1.4280    -2.8270 h2         1 233       0.084700
     26 H2           1.5290    -0.8160    -4.1960 h1         1 233       0.058700
     27 H3           0.5120     1.8250    -5.3820 h1         1 233       0.053700
     28 H4          -1.0290     0.5350    -6.7300 h1         1 233       0.052700
     29 H5          -1.8270     1.2400    -4.5190 h1         1 233       0.054700
     30 H9          -3.3760    -0.1790    -5.8620 h1         1 233       0.036700
     31 H10         -2.7500    -1.6300    -5.0670 h1         1 233       0.036700
     32 H6           2.4260     1.1630    -2.7700 ho         1 233       0.514000
     33 H7           2.5750     0.8040    -6.0620 ho         1 233       0.469000
     34 H8           0.5610    -1.3080    -6.6430 ho         1 233       0.521000
     35 H11         -4.6910    -0.9570    -4.0680 ho         1 233       0.504000
     36 H12          0.0830    -1.1180    -1.5010 hn         1 233       0.311500
     37 H13          2.6170    -0.5770     0.7090 hc         1 233       0.056200
     38 H14          1.1100    -1.4910     0.3680 hc         1 233       0.056200
     39 H15         -0.2190     0.3510     1.4160 hc         1 233       0.058700
     40 H16          1.2670     1.2320     1.7680 hc         1 233       0.058700
     41 H17          2.0460    -0.6620     3.2280 hc         1 233       0.041200
     42 H18          0.5580    -1.5430     2.8770 hc         1 233       0.041200
     43 H19         -0.7840     0.3010     3.9320 hc         1 233       0.048200
     44 H20          0.7050     1.1830     4.2830 hc         1 233       0.048200
     45 H21          1.4820    -0.6970     5.7500 h1         1 233       0.050700
     46 H22         -0.0190    -1.5860     5.3970 h1         1 233       0.050700
     47 H23         -0.7340     0.9840     6.4050 hn         1 233       0.328500
     48 H24         -1.7260     1.0670    10.5260 h1         1 233       0.047033
     49 H25         -1.6580    -0.6760    10.1920 h1         1 233       0.047033
     50 H26         -0.1600     0.2270    10.5340 h1         1 233       0.047033
@<TRIPOS>BOND
     1     1     2 1   
     2     1    10 1   
     3     1    12 1   
     4     1    25 1   
     5     2     3 1   
     6     2     7 1   
     7     2    26 1   
     8     3     4 1   
     9     3     8 1   
    10     3    27 1   
    11     4     5 1   
    12     4     9 1   
    13     4    28 1   
    14     5     6 1   
    15     5    10 1   
    16     5    29 1   
    17     6    11 1   
    18     6    30 1   
    19     6    31 1   
    20     7    32 1   
    21     8    33 1   
    22     9    34 1   
    23    11    35 1   
    24    12    14 1   
    25    12    36 1   
    26    13    14 2   
    27    14    15 1   
    28    15    16 1   
    29    15    37 1   
    30    15    38 1   
    31    16    17 1   
    32    16    39 1   
    33    16    40 1   
    34    17    18 1   
    35    17    41 1   
    36    17    42 1   
    37    18    19 1   
    38    18    43 1   
    39    18    44 1   
    40    19    20 1   
    41    19    45 1   
    42    19    46 1   
    43    20    21 1   
    44    20    47 1   
    45    21    22 2   
    46    21    23 1   
    47    23    24 1   
    48    24    48 1   
    49    24    49 1   
    50    24    50 1   
@<TRIPOS>SUBSTRUCTURE
     1 233         1 TEMP              0 ****  ****    0 ROOT
