@<TRIPOS>MOLECULE
234
   45    47     1     0     0
SMALL
bcc


@<TRIPOS>ATOM
      1 C1           1.8730    -1.1000     3.4660 ca         1 234       0.155900
      2 C2           0.6020    -0.5380     3.4680 ca         1 234      -0.129500
      3 C3          -0.1190    -0.5970     2.2720 ca         1 234      -0.069000
      4 C4           0.3990    -1.1850     1.1230 ca         1 234      -0.092800
      5 C5           1.6790    -1.7450     1.1800 ca         1 234      -0.095000
      6 C6           2.4160    -1.7010     2.3480 ca         1 234      -0.184000
      7 C7           0.0410     0.0880     4.6570 cc         1 234       0.250200
      8 O12         -1.0940     0.7800     4.4810 os         1 234      -0.171100
      9 N13         -1.5190     1.2910     5.6660 nc         1 234      -0.336300
     10 C14         -0.6500     0.9150     6.5600 cd         1 234       0.260800
     11 C15          0.3800     0.1400     5.9710 cd         1 234      -0.295600
     12 C16         -0.7890     1.2930     8.0250 c          1 234       0.839100
     13 O1          -1.7740     1.9820     8.3280 o          1 234      -0.800300
     14 O2           0.1150     0.8590     8.7580 o          1 234      -0.800300
     15 C8          -0.4240    -1.1930    -0.0890 ce         1 234      -0.054200
     16 C32         -1.0500    -0.5450    -4.6500 ca         1 234       0.230100
     17 C33         -2.2100    -1.2340    -4.9920 ca         1 234      -0.265000
     18 C34         -2.7360    -1.0730    -6.2660 ca         1 234      -0.031000
     19 C35         -2.1380    -0.2510    -7.2030 ca         1 234      -0.278000
     20 C36         -0.9730     0.4320    -6.8590 ca         1 234       0.212100
     21 C37         -0.4250     0.2870    -5.5850 ca         1 234      -0.209600
     22 C38          0.7910     1.0540    -5.1970 c          1 234       0.679700
     23 O11          0.8170     1.8900    -4.3300 o          1 234      -0.515000
     24 O4           1.8420     0.7040    -5.9190 os         1 234      -0.407900
     25 C39          3.0630     1.4090    -5.6860 c3         1 234       0.129700
     26 O14         -0.3490     1.2660    -7.7060 oh         1 234      -0.482100
     27 O3          -0.4420    -0.6300    -3.4570 os         1 234      -0.303900
     28 C40         -0.9530    -1.5340    -2.4820 c3         1 234       0.181600
     29 C41         -0.0240    -1.5110    -1.3190 c2         1 234      -0.196200
     30 F1           2.6050    -1.0650     4.5860 f          1 234      -0.130900
     31 H3          -1.1150    -0.1750     2.2310 ha         1 234       0.155000
     32 H5           2.1070    -2.2320     0.3150 ha         1 234       0.126000
     33 H6           3.4060    -2.1350     2.3980 ha         1 234       0.143000
     34 H15          1.2150    -0.3060     6.4780 ha         1 234       0.179000
     35 H8          -1.4590    -0.8960     0.0560 ha         1 234       0.124000
     36 H33         -2.7100    -1.8880    -4.2920 ha         1 234       0.144000
     37 H34         -3.6420    -1.6030    -6.5310 ha         1 234       0.129000
     38 H35         -2.5670    -0.1360    -8.1910 ha         1 234       0.133000
     39 H391         3.7860     0.9890    -6.3800 h1         1 234       0.045033
     40 H392         2.9510     2.4750    -5.8810 h1         1 234       0.045033
     41 H393         3.4170     1.2650    -4.6650 h1         1 234       0.045033
     42 H14         -0.8250     1.3120    -8.5430 ho         1 234       0.428000
     43 H401        -1.9650    -1.2460    -2.1770 h1         1 234       0.040200
     44 H402        -1.0040    -2.5450    -2.9030 h1         1 234       0.040200
     45 H41          1.0040    -1.7940    -1.5230 ha         1 234       0.133000
@<TRIPOS>BOND
     1     1     2 ar  
     2     1     6 ar  
     3     1    30 1   
     4     2     3 ar  
     5     2     7 1   
     6     3     4 ar  
     7     3    31 1   
     8     4     5 ar  
     9     4    15 1   
    10     5     6 ar  
    11     5    32 1   
    12     6    33 1   
    13     7     8 1   
    14     7    11 2   
    15     8     9 1   
    16     9    10 2   
    17    10    11 1   
    18    10    12 1   
    19    11    34 1   
    20    12    13 1   
    21    12    14 1   
    22    15    29 2   
    23    15    35 1   
    24    16    17 ar  
    25    16    21 ar  
    26    16    27 1   
    27    17    18 ar  
    28    17    36 1   
    29    18    19 ar  
    30    18    37 1   
    31    19    20 ar  
    32    19    38 1   
    33    20    21 ar  
    34    20    26 1   
    35    21    22 1   
    36    22    23 2   
    37    22    24 1   
    38    24    25 1   
    39    25    39 1   
    40    25    40 1   
    41    25    41 1   
    42    26    42 1   
    43    27    28 1   
    44    28    29 1   
    45    28    43 1   
    46    28    44 1   
    47    29    45 1   
@<TRIPOS>SUBSTRUCTURE
     1 234         1 TEMP              0 ****  ****    0 ROOT
