@<TRIPOS>MOLECULE
234
   45    47     1     0     0
SMALL
No Charge or Current Charge


@<TRIPOS>ATOM
      1 C1           1.8120    -1.3580     3.3730 ca         1 234       0.191000
      2 C2           0.7600    -0.4460     3.1330 ca         1 234      -0.129500
      3 C3           0.1100    -0.4770     1.8810 ca         1 234      -0.051000
      4 C4           0.4780    -1.4070     0.8870 ca         1 234      -0.092800
      5 C5           1.5280    -2.3110     1.1500 ca         1 234      -0.077000
      6 C6           2.1900    -2.2810     2.3880 ca         1 234      -0.166000
      7 C7           0.3360     0.5380     4.1340 cc         1 234       0.140500
      8 O12         -0.2080     1.7490     3.8030 os         1 234      -0.126700
      9 N13         -0.5730     2.4140     5.0330 nc         1 234      -0.336300
     10 C14         -0.2530     1.5550     6.0060 cd         1 234       0.195500
     11 C15          0.3070     0.3670     5.4800 cd         1 234      -0.147000
     12 C16         -0.4810     1.8320     7.4760 c          1 234       0.628500
     13 O1          -0.9790     2.8980     7.8220 o          1 234      -0.695000
     14 O2          -0.1570     0.9750     8.2910 o          1 234      -0.695000
     15 C8          -0.2480    -1.3960    -0.4180 ce         1 234      -0.104200
     16 C32         -1.0470    -0.8380    -4.6230 ca         1 234       0.230100
     17 C33         -1.9780    -1.6580    -5.2980 ca         1 234      -0.247000
     18 C34         -2.4530    -1.2910    -6.5660 ca         1 234      -0.013000
     19 C35         -2.0030    -0.1040    -7.1630 ca         1 234      -0.260000
     20 C36         -1.0790     0.7130    -6.4960 ca         1 234       0.212100
     21 C37         -0.5990     0.3480    -5.2280 ca         1 234      -0.209600
     22 C38          0.3790     1.2130    -4.5110 c          1 234       0.630700
     23 O11          0.1000     1.8260    -3.4870 o          1 234      -0.466000
     24 O4           1.6090     1.2470    -5.1180 os         1 234      -0.431100
     25 C39          2.6380     2.0510    -4.5150 c3         1 234       0.152900
     26 O14         -0.6760     1.8720    -7.0850 oh         1 234      -0.521100
     27 O3          -0.5440    -1.1730    -3.3820 os         1 234      -0.327100
     28 C40         -0.9620    -2.3460    -2.6710 c3         1 234       0.204800
     29 C41         -0.2140    -2.3700    -1.3570 c2         1 234      -0.246200
     30 F1           2.4950    -1.3410     4.5390 f          1 234      -0.166000
     31 H3          -0.7000     0.2230     1.6830 ha         1 234       0.137000
     32 H5           1.8500    -3.0280     0.4000 ha         1 234       0.108000
     33 H6           3.0070    -2.9720     2.5830 ha         1 234       0.125000
     34 H15          0.6270    -0.5010     6.0430 ha         1 234       0.161000
     35 H8          -0.8610    -0.5090    -0.5930 ha         1 234       0.174000
     36 H33         -2.3400    -2.5820    -4.8590 ha         1 234       0.126000
     37 H34         -3.1710    -1.9250    -7.0850 ha         1 234       0.111000
     38 H35         -2.3800     0.1760    -8.1430 ha         1 234       0.115000
     39 H391         3.5650     1.9870    -5.0990 h1         1 234       0.045033
     40 H392         2.3350     3.1050    -4.4720 h1         1 234       0.045033
     41 H393         2.8540     1.7090    -3.4950 h1         1 234       0.045033
     42 H14         -1.1190     1.9390    -7.9570 ho         1 234       0.467000
     43 H401        -2.0430    -2.3200    -2.4800 h1         1 234       0.040200
     44 H402        -0.7310    -3.2520    -3.2470 h1         1 234       0.040200
     45 H41          0.3700    -3.2780    -1.2140 ha         1 234       0.183000
@<TRIPOS>BOND
     1     1     2 ar  
     2     1     6 ar  
     3     1    30 1   
     4     2     3 ar  
     5     2     7 1   
     6     3     4 ar  
     7     3    31 1   
     8     4     5 ar  
     9     4    15 1   
    10     5     6 ar  
    11     5    32 1   
    12     6    33 1   
    13     7     8 1   
    14     7    11 2   
    15     8     9 1   
    16     9    10 2   
    17    10    11 1   
    18    10    12 1   
    19    11    34 1   
    20    12    13 1   
    21    12    14 1   
    22    15    29 2   
    23    15    35 1   
    24    16    17 ar  
    25    16    21 ar  
    26    16    27 1   
    27    17    18 ar  
    28    17    36 1   
    29    18    19 ar  
    30    18    37 1   
    31    19    20 ar  
    32    19    38 1   
    33    20    21 ar  
    34    20    26 1   
    35    21    22 1   
    36    22    23 2   
    37    22    24 1   
    38    24    25 1   
    39    25    39 1   
    40    25    40 1   
    41    25    41 1   
    42    26    42 1   
    43    27    28 1   
    44    28    29 1   
    45    28    43 1   
    46    28    44 1   
    47    29    45 1   
@<TRIPOS>SUBSTRUCTURE
     1 234         1 TEMP              0 ****  ****    0 ROOT
