@<TRIPOS>MOLECULE
235
   55    56     1     0     0
SMALL
No Charge or Current Charge


@<TRIPOS>ATOM
      1 C35          1.2130     1.9610     0.6770 ca         1 235      -0.008000
      2 C36          0.0170     2.5750     0.2650 ca         1 235      -0.134500
      3 C37         -0.2490     2.7570    -1.1020 ca         1 235      -0.056000
      4 C38          0.6900     2.3390    -2.0600 ca         1 235      -0.134500
      5 C39          1.8920     1.7310    -1.6530 ca         1 235      -0.008000
      6 C34          2.1510     1.5250    -0.2820 ca         1 235      -0.300500
      7 S32          3.7030     0.7630     0.2330 sy         1 235       1.137600
      8 O33          4.7810     1.2210    -0.6490 o          1 235      -0.585500
      9 O32          3.8190     0.8190     1.6910 o          1 235      -0.585500
     10 N31          3.5120    -0.8680    -0.1240 n7         1 235      -0.831300
     11 C27          2.1800    -1.4930    -0.5350 c3         1 235      -0.133500
     12 C28          2.4530    -2.8200    -1.3310 c3         1 235      -0.016700
     13 C30          1.2040    -3.3090    -2.1140 c3         1 235      -0.086100
     14 C29          3.6430    -2.7070    -2.3250 c3         1 235      -0.086100
     15 P24          0.8080    -1.7020     0.7950 p5         1 235       1.362000
     16 O25          1.1330    -0.9120     2.0230 o          1 235      -0.793000
     17 O26          0.5860    -3.1460     1.1250 o          1 235      -0.793000
     18 C15         -0.7000    -1.0100    -0.0270 c3         1 235      -0.409400
     19 C1          -1.8440    -0.5380     0.9360 c3         1 235      -0.132400
     20 C2          -2.4660    -1.6880     1.7790 c          1 235       0.739000
     21 O14         -3.0510    -2.5930     1.1980 o          1 235      -0.730000
     22 O13         -2.3990    -1.6120     2.9980 o          1 235      -0.730000
     23 C3          -2.9410     0.2580     0.2190 ca         1 235       0.015700
     24 C8          -3.4500     1.4330     0.8110 ca         1 235      -0.124000
     25 C4          -3.4590    -0.1570    -1.0260 ca         1 235      -0.087000
     26 C5          -4.4590     0.5930    -1.6680 ca         1 235      -0.143000
     27 C6          -4.9530     1.7640    -1.0710 ca         1 235      -0.140000
     28 C7          -4.4530     2.1920     0.1730 ca         1 235      -0.121300
     29 C9          -5.0000     3.4520     0.8310 c3         1 235       0.201100
     30 N10         -4.2820     4.6540     0.3760 n8         1 235      -0.998200
     31 H35          1.4020     1.8250     1.7410 ha         1 235       0.132000
     32 H36         -0.7070     2.9020     1.0070 ha         1 235       0.104000
     33 H37         -1.1810     3.2230    -1.4180 ha         1 235       0.114000
     34 H38          0.4880     2.4840    -3.1180 ha         1 235       0.104000
     35 H39          2.6130     1.4100    -2.4030 ha         1 235       0.132000
     36 HN31         3.8440    -1.2650     0.7560 hn         1 235       0.526000
     37 H27          1.7080    -0.8310    -1.2680 h1         1 235       0.038700
     38 H28          2.7170    -3.6020    -0.6080 hc         1 235       0.060700
     39 H301         0.8530    -2.5370    -2.8090 hc         1 235       0.024533
     40 H302         1.4400    -4.2070    -2.6980 hc         1 235       0.024533
     41 H303         0.3770    -3.5740    -1.4480 hc         1 235       0.024533
     42 H291         4.5940    -2.5550    -1.8020 hc         1 235       0.024533
     43 H292         3.7470    -3.6260    -2.9150 hc         1 235       0.024533
     44 H293         3.4910    -1.8720    -3.0210 hc         1 235       0.024533
     45 H151        -0.3700    -0.1680    -0.6420 hc         1 235       0.038700
     46 H152        -1.0660    -1.7850    -0.7060 hc         1 235       0.038700
     47 H1          -1.3720     0.1450     1.6530 hc         1 235       0.056700
     48 H8          -3.0650     1.7600     1.7740 ha         1 235       0.107000
     49 H4          -3.0930    -1.0650    -1.4970 ha         1 235       0.136000
     50 H5          -4.8510     0.2650    -2.6270 ha         1 235       0.080000
     51 H6          -5.7280     2.3390    -1.5740 ha         1 235       0.093000
     52 H91         -6.0670     3.5670     0.5930 h1         1 235       0.024200
     53 H92         -4.9000     3.3750     1.9220 h1         1 235       0.024200
     54 H101        -4.6110     5.4600     0.9190 hn         1 235       0.378000
     55 H102        -3.2960     4.5600     0.6420 hn         1 235       0.378000
@<TRIPOS>BOND
     1     1     2 ar  
     2     1     6 ar  
     3     1    31 1   
     4     2     3 ar  
     5     2    32 1   
     6     3     4 ar  
     7     3    33 1   
     8     4     5 ar  
     9     4    34 1   
    10     5     6 ar  
    11     5    35 1   
    12     6     7 1   
    13     7     8 2   
    14     7     9 2   
    15     7    10 1   
    16    10    11 1   
    17    10    36 1   
    18    11    12 1   
    19    11    15 1   
    20    11    37 1   
    21    12    13 1   
    22    12    14 1   
    23    12    38 1   
    24    13    39 1   
    25    13    40 1   
    26    13    41 1   
    27    14    42 1   
    28    14    43 1   
    29    14    44 1   
    30    15    16 1   
    31    15    17 1   
    32    15    18 1   
    33    18    19 1   
    34    18    45 1   
    35    18    46 1   
    36    19    20 1   
    37    19    23 1   
    38    19    47 1   
    39    20    21 1   
    40    20    22 1   
    41    23    24 ar  
    42    23    25 ar  
    43    24    28 ar  
    44    24    48 1   
    45    25    26 ar  
    46    25    49 1   
    47    26    27 ar  
    48    26    50 1   
    49    27    28 ar  
    50    27    51 1   
    51    28    29 1   
    52    29    30 1   
    53    29    52 1   
    54    29    53 1   
    55    30    54 1   
    56    30    55 1   
@<TRIPOS>SUBSTRUCTURE
     1 235         1 TEMP              0 ****  ****    0 ROOT
