@<TRIPOS>MOLECULE
235
   55    56     1     0     0
SMALL
bcc


@<TRIPOS>ATOM
      1 C35          1.1350     2.0550     0.3830 ca         1 235      -0.026000
      2 C36         -0.1010     2.6630     0.2460 ca         1 235      -0.152500
      3 C37         -0.6850     2.7870    -1.0080 ca         1 235      -0.074000
      4 C38         -0.0230     2.3220    -2.1340 ca         1 235      -0.152500
      5 C39          1.2180     1.7110    -2.0120 ca         1 235      -0.026000
      6 C34          1.7840     1.5800    -0.7520 ca         1 235      -0.300500
      7 S32          3.3190     0.7100    -0.5510 sy         1 235       1.279200
      8 O33          3.8610     0.4730    -1.8810 o          1 235      -0.656300
      9 O32          4.1210     1.4390     0.4230 o          1 235      -0.656300
     10 N31          2.9580    -0.7240     0.1450 n7         1 235      -0.776100
     11 C27          2.0430    -1.6630    -0.5180 c3         1 235       0.024300
     12 C28          2.7270    -2.9880    -0.8890 c3         1 235      -0.016700
     13 C30          1.8390    -3.7700    -1.8530 c3         1 235      -0.086100
     14 C29          4.1060    -2.7910    -1.5070 c3         1 235      -0.086100
     15 P24          0.5890    -1.8770     0.6930 p5         1 235       1.046400
     16 O25          1.0100    -1.0610     1.9140 o          1 235      -0.793000
     17 O26          0.2670    -3.3390     0.8980 o          1 235      -0.793000
     18 C15         -0.7730    -1.0150    -0.1660 c3         1 235      -0.251600
     19 C1          -2.0040    -0.8130     0.7210 c3         1 235      -0.132400
     20 C2          -2.8190    -2.1170     0.9130 c          1 235       0.949600
     21 O14         -3.0850    -2.7680    -0.1140 o          1 235      -0.835300
     22 O13         -3.1790    -2.3860     2.0760 o          1 235      -0.835300
     23 C3          -2.8980     0.2670     0.1620 ca         1 235       0.015700
     24 C8          -3.2480     1.3630     0.9440 ca         1 235      -0.142000
     25 C4          -3.3680     0.2200    -1.1500 ca         1 235      -0.105000
     26 C5          -4.1500     1.2490    -1.6520 ca         1 235      -0.161000
     27 C6          -4.4870     2.3380    -0.8580 ca         1 235      -0.158000
     28 C7          -4.0380     2.4020     0.4570 ca         1 235      -0.121300
     29 C9          -4.3940     3.5580     1.3580 c3         1 235       0.201100
     30 N10         -4.5060     4.8110     0.6280 n8         1 235      -0.887800
     31 H35          1.5760     1.9430     1.3650 ha         1 235       0.150000
     32 H36         -0.6190     3.0250     1.1240 ha         1 235       0.122000
     33 H37         -1.6650     3.2350    -1.1050 ha         1 235       0.132000
     34 H38         -0.4760     2.4210    -3.1120 ha         1 235       0.122000
     35 H39          1.7280     1.3390    -2.8900 ha         1 235       0.150000
     36 HN31         2.6390    -0.5850     1.1140 hn         1 235       0.470800
     37 H27          1.6540    -1.2200    -1.4450 h1         1 235       0.038700
     38 H28          2.8440    -3.5810     0.0240 hc         1 235       0.060700
     39 H301         1.6920    -3.2090    -2.7800 hc         1 235       0.024533
     40 H302         2.2990    -4.7230    -2.1160 hc         1 235       0.024533
     41 H303         0.8620    -3.9770    -1.4220 hc         1 235       0.024533
     42 H291         4.7870    -2.2710    -0.8340 hc         1 235       0.024533
     43 H292         4.5490    -3.7600    -1.7470 hc         1 235       0.024533
     44 H293         4.0470    -2.2150    -2.4320 hc         1 235       0.024533
     45 H151        -0.3940    -0.0420    -0.4810 hc         1 235       0.038700
     46 H152        -1.0390    -1.5640    -1.0710 hc         1 235       0.038700
     47 H1          -1.6640    -0.4700     1.7020 hc         1 235       0.056700
     48 H8          -2.8710     1.4240     1.9610 ha         1 235       0.125000
     49 H4          -3.1110    -0.6180    -1.7840 ha         1 235       0.154000
     50 H5          -4.4990     1.2050    -2.6760 ha         1 235       0.098000
     51 H6          -5.0850     3.1440    -1.2620 ha         1 235       0.111000
     52 H91         -5.3650     3.3580     1.8230 h1         1 235       0.024200
     53 H92         -3.6710     3.5900     2.1840 h1         1 235       0.024200
     54 H101        -4.7980     5.5400     1.2660 hn         1 235       0.322800
     55 H102        -3.5920     5.0880     0.2910 hn         1 235       0.322800
@<TRIPOS>BOND
     1     1     2 ar  
     2     1     6 ar  
     3     1    31 1   
     4     2     3 ar  
     5     2    32 1   
     6     3     4 ar  
     7     3    33 1   
     8     4     5 ar  
     9     4    34 1   
    10     5     6 ar  
    11     5    35 1   
    12     6     7 1   
    13     7     8 2   
    14     7     9 2   
    15     7    10 1   
    16    10    11 1   
    17    10    36 1   
    18    11    12 1   
    19    11    15 1   
    20    11    37 1   
    21    12    13 1   
    22    12    14 1   
    23    12    38 1   
    24    13    39 1   
    25    13    40 1   
    26    13    41 1   
    27    14    42 1   
    28    14    43 1   
    29    14    44 1   
    30    15    16 1   
    31    15    17 1   
    32    15    18 1   
    33    18    19 1   
    34    18    45 1   
    35    18    46 1   
    36    19    20 1   
    37    19    23 1   
    38    19    47 1   
    39    20    21 1   
    40    20    22 1   
    41    23    24 ar  
    42    23    25 ar  
    43    24    28 ar  
    44    24    48 1   
    45    25    26 ar  
    46    25    49 1   
    47    26    27 ar  
    48    26    50 1   
    49    27    28 ar  
    50    27    51 1   
    51    28    29 1   
    52    29    30 1   
    53    29    52 1   
    54    29    53 1   
    55    30    54 1   
    56    30    55 1   
@<TRIPOS>SUBSTRUCTURE
     1 235         1 TEMP              0 ****  ****    0 ROOT
