@<TRIPOS>MOLECULE
237
   62    65     1     0     0
SMALL
No Charge or Current Charge


@<TRIPOS>ATOM
      1 N1          -0.3530     1.1580    -0.6600 ns         1 237      -0.136000
      2 N3           5.1740     0.3370    -0.0160 ns         1 237      -0.157000
      3 C4           8.3510    -1.5620     0.3730 ca         1 237      -0.077500
      4 C5           8.0320    -2.7990    -0.2060 ca         1 237       0.095000
      5 C6           6.7500    -3.0160    -0.7340 ca         1 237      -0.077500
      6 C7           5.7840    -1.9940    -0.6850 ca         1 237      -0.135500
      7 C8           3.0830     4.0770     0.0760 c5         1 237       0.157300
      8 C10          1.8580     2.0650    -0.4730 c5         1 237       0.047700
      9 C13         -5.4900    -1.4580    -0.5360 cp         1 237       0.060000
     10 C15         -6.7400    -3.4630    -1.2320 ca         1 237      -0.059000
     11 C17         -7.8840    -1.7260     0.0260 ca         1 237      -0.024000
     12 C20         -5.6430     0.3160     2.3960 c3         1 237      -0.335100
     13 C22         -1.8850    -0.5440     0.3370 ca         1 237      -0.115000
     14 C24         -2.6180     0.8690    -1.4950 ca         1 237       0.114000
     15 C26         -4.1730    -0.7590    -0.5320 cp         1 237      -0.096000
     16 C1           0.7990     1.0720     0.1140 c          1 237       0.613100
     17 O1           0.9420     0.3470     1.0940 o          1 237      -0.564100
     18 C2           6.0950    -0.7440    -0.1050 ca         1 237      -0.008000
     19 C3           7.3860    -0.5400     0.4230 ca         1 237      -0.135500
     20 C9           1.6860     3.4420     0.2440 c5         1 237      -0.088400
     21 N2           3.2840     1.7460    -0.1600 n          1 237      -0.421800
     22 C11          4.0240     2.8900     0.4250 c5         1 237       0.070000
     23 C12          3.8600     0.4880    -0.4400 c          1 237       0.673100
     24 O2           3.2210    -0.3770    -1.0240 o          1 237      -0.622100
     25 O3           3.2170     5.1220     1.0690 os         1 237      -0.438000
     26 C14         -5.5520    -2.7160    -1.1810 ca         1 237      -0.119000
     27 C16         -7.9050    -2.9670    -0.6290 ca         1 237      -0.125000
     28 C18         -6.6910    -0.9730     0.0720 ca         1 237      -0.242500
     29 S1          -6.6530     0.6220     0.9460 sy         1 237       1.054500
     30 C19          4.4610     5.8460     1.0990 c3         1 237       0.142900
     31 O4          -8.0060     0.9100     1.4400 o          1 237      -0.526000
     32 O5          -5.9330     1.6140     0.1380 o          1 237      -0.526000
     33 C23         -1.6080     0.4880    -0.5870 ca         1 237      -0.037000
     34 C25         -3.8770     0.2500    -1.4760 ca         1 237      -0.068000
     35 C27         -3.1480    -1.1630     0.3540 ca         1 237      -0.090000
     36 HN1         -0.2940     1.8220    -1.4210 hn         1 237       0.166000
     37 HN3          5.5490     1.1510     0.4500 hn         1 237       0.152000
     38 H4           9.3450    -1.3940     0.7830 ha         1 237       0.130000
     39 H6           6.5050    -3.9760    -1.1820 ha         1 237       0.130000
     40 H7           4.8030    -2.1990    -1.1020 ha         1 237       0.128500
     41 H8           3.2480     4.4690    -0.9380 h1         1 237       0.045700
     42 H10          1.7220     2.1530    -1.5590 h1         1 237       0.072700
     43 H15         -6.7560    -4.4260    -1.7370 ha         1 237       0.120000
     44 H17         -8.7950    -1.3580     0.4950 ha         1 237       0.147000
     45 H201        -4.6180     0.1170     2.0760 h1         1 237       0.104700
     46 H202        -5.6770     1.2110     3.0240 h1         1 237       0.104700
     47 H203        -6.0610    -0.5460     2.9270 h1         1 237       0.104700
     48 H22         -1.1370    -0.8900     1.0440 ha         1 237       0.154000
     49 H3           7.6450     0.4150     0.8750 ha         1 237       0.128500
     50 H91          1.4430     3.3160     1.3060 hc         1 237       0.079200
     51 H92          0.8920     4.0520    -0.2040 hc         1 237       0.079200
     52 H111         5.0160     3.0230    -0.0280 h1         1 237       0.057200
     53 H112         4.1400     2.7660     1.5100 h1         1 237       0.057200
     54 H14         -4.6560    -3.1160    -1.6500 ha         1 237       0.124000
     55 H16         -8.8250    -3.5470    -0.6660 ha         1 237       0.122000
     56 H191         4.6600     6.3180     0.1280 h1         1 237       0.034367
     57 H192         4.4230     6.6350     1.8610 h1         1 237       0.034367
     58 H193         5.3000     5.1810     1.3410 h1         1 237       0.034367
     59 H25         -4.6340     0.5580    -2.1930 ha         1 237       0.152000
     60 H27         -3.3400    -1.9640     1.0650 ha         1 237       0.123000
     61 F1          -2.3770     1.8410    -2.4050 f          1 237      -0.182000
     62 Cl1          9.2380    -4.0780    -0.2690 cl         1 237      -0.205000
@<TRIPOS>BOND
     1     1    16 1   
     2     1    33 1   
     3     1    36 1   
     4     2    18 1   
     5     2    23 1   
     6     2    37 1   
     7     3     4 ar  
     8     3    19 ar  
     9     3    38 1   
    10     4     5 ar  
    11     4    62 1   
    12     5     6 ar  
    13     5    39 1   
    14     6    18 ar  
    15     6    40 1   
    16     7    20 1   
    17     7    22 1   
    18     7    25 1   
    19     7    41 1   
    20     8    16 1   
    21     8    20 1   
    22     8    21 1   
    23     8    42 1   
    24     9    15 1   
    25     9    26 ar  
    26     9    28 ar  
    27    10    26 ar  
    28    10    27 ar  
    29    10    43 1   
    30    11    27 ar  
    31    11    28 ar  
    32    11    44 1   
    33    12    29 1   
    34    12    45 1   
    35    12    46 1   
    36    12    47 1   
    37    13    33 ar  
    38    13    35 ar  
    39    13    48 1   
    40    14    33 ar  
    41    14    34 ar  
    42    14    61 1   
    43    15    34 ar  
    44    15    35 ar  
    45    16    17 2   
    46    18    19 ar  
    47    19    49 1   
    48    20    50 1   
    49    20    51 1   
    50    21    22 1   
    51    21    23 1   
    52    22    52 1   
    53    22    53 1   
    54    23    24 2   
    55    25    30 1   
    56    26    54 1   
    57    27    55 1   
    58    28    29 1   
    59    29    31 2   
    60    29    32 2   
    61    30    56 1   
    62    30    57 1   
    63    30    58 1   
    64    34    59 1   
    65    35    60 1   
@<TRIPOS>SUBSTRUCTURE
     1 237         1 TEMP              0 ****  ****    0 ROOT
