@<TRIPOS>MOLECULE
238
   42    45     1     0     0
SMALL
No Charge or Current Charge


@<TRIPOS>ATOM
      1 F1           5.5460    -0.4400     2.1200 f          1 238      -0.175000
      2 C19          6.0970    -0.3890     0.8860 ca         1 238       0.177000
      3 C22          7.4960    -0.4630     0.7810 ca         1 238      -0.159000
      4 C21          8.1150    -0.3820    -0.4770 ca         1 238      -0.094000
      5 C20          7.3310    -0.2220    -1.6300 ca         1 238      -0.132000
      6 C18          5.9310    -0.1460    -1.5270 ca         1 238      -0.080000
      7 C17          5.2820    -0.2320    -0.2690 cp         1 238      -0.053000
      8 C16          3.7880    -0.1500    -0.1890 cp         1 238      -0.057000
      9 C12          3.0750     0.8080    -0.9490 ca         1 238      -0.101500
     10 C13          3.0400    -1.0390     0.6200 ca         1 238      -0.101500
     11 C9           1.6390    -0.9620     0.6810 ca         1 238      -0.089000
     12 C23          0.9250     0.0130    -0.0610 cp         1 238      -0.104500
     13 C8           1.6730     0.8870    -0.8880 ca         1 238      -0.089000
     14 C3          -0.5740     0.0850     0.0020 cp         1 238       0.406500
     15 N1          -1.2060    -1.0940    -0.1870 nb         1 238      -0.705000
     16 C7          -2.5530    -1.1450    -0.2020 ca         1 238       0.261000
     17 C11         -3.1870    -2.3820    -0.4230 ca         1 238      -0.096000
     18 C15         -4.5880    -2.4840    -0.4570 ca         1 238      -0.110000
     19 C14         -5.3710    -1.3380    -0.2680 ca         1 238       0.082000
     20 Cl1         -7.1250    -1.4610    -0.3120 cl         1 238      -0.240000
     21 C10         -4.7600    -0.0950    -0.0430 ca         1 238      -0.029000
     22 C6          -3.3490     0.0130    -0.0060 ca         1 238      -0.055000
     23 C4          -2.7090     1.2560     0.2280 ca         1 238      -0.064600
     24 C5          -3.5180     2.5120     0.4500 c          1 238       0.712600
     25 O2          -4.0400     2.6740     1.5440 o          1 238      -0.700000
     26 O1          -3.6380     3.2910    -0.4840 o          1 238      -0.700000
     27 C2          -1.2910     1.2920     0.2460 ca         1 238      -0.119300
     28 C1          -0.5700     2.6090     0.5530 c3         1 238      -0.033800
     29 H22          8.0990    -0.5790     1.6780 ha         1 238       0.125000
     30 H21          9.1990    -0.4400    -0.5570 ha         1 238       0.109000
     31 H20          7.8070    -0.1580    -2.6060 ha         1 238       0.112000
     32 H18          5.3400    -0.0310    -2.4320 ha         1 238       0.122000
     33 H12          3.6160     1.5020    -1.5870 ha         1 238       0.108000
     34 H13          3.5510    -1.8060     1.1970 ha         1 238       0.108000
     35 H9           1.0950    -1.6620     1.3120 ha         1 238       0.127000
     36 H8           1.1600     1.6290    -1.4950 ha         1 238       0.127000
     37 H11         -2.5840    -3.2740    -0.5730 ha         1 238       0.115000
     38 H15         -5.0620    -3.4470    -0.6300 ha         1 238       0.110000
     39 H10         -5.3970     0.7730     0.1000 ha         1 238       0.160000
     40 H11A        -0.4450     3.2110    -0.3550 hc         1 238       0.042367
     41 H12A        -1.1180     3.2170     1.2830 hc         1 238       0.042367
     42 H13A         0.4220     2.4430     0.9880 hc         1 238       0.042367
@<TRIPOS>BOND
     1     1     2 1   
     2     2     3 ar  
     3     2     7 ar  
     4     3     4 ar  
     5     3    29 1   
     6     4     5 ar  
     7     4    30 1   
     8     5     6 ar  
     9     5    31 1   
    10     6     7 ar  
    11     6    32 1   
    12     7     8 1   
    13     8     9 ar  
    14     8    10 ar  
    15     9    13 ar  
    16     9    33 1   
    17    10    11 ar  
    18    10    34 1   
    19    11    12 ar  
    20    11    35 1   
    21    12    13 ar  
    22    12    14 1   
    23    13    36 1   
    24    14    15 ar  
    25    14    27 ar  
    26    15    16 ar  
    27    16    17 ar  
    28    16    22 ar  
    29    17    18 ar  
    30    17    37 1   
    31    18    19 ar  
    32    18    38 1   
    33    19    20 1   
    34    19    21 ar  
    35    21    22 ar  
    36    21    39 1   
    37    22    23 ar  
    38    23    24 1   
    39    23    27 ar  
    40    24    25 1   
    41    24    26 1   
    42    27    28 1   
    43    28    40 1   
    44    28    41 1   
    45    28    42 1   
@<TRIPOS>SUBSTRUCTURE
     1 238         1 TEMP              0 ****  ****    0 ROOT
