@<TRIPOS>MOLECULE
239
   42    44     1     0     0
SMALL
No Charge or Current Charge


@<TRIPOS>ATOM
      1 N18         -1.5780    -0.8540    -7.2040 n2         1 239      -0.828100
      2 C17         -0.4700    -0.3240    -6.8890 ce         1 239       0.660800
      3 N19          0.2880     0.2050    -7.8750 nv         1 239      -1.077200
      4 C12         -0.0100    -0.1540    -5.4700 ca         1 239      -0.135900
      5 C13         -0.9310    -0.2900    -4.4040 ca         1 239      -0.051000
      6 C3          -0.5130    -0.1620    -3.0660 ca         1 239      -0.032000
      7 C4          -1.4410    -0.2850    -2.0170 ca         1 239      -0.093000
      8 C5          -1.0260    -0.1580    -0.6810 ca         1 239      -0.098000
      9 C6           0.3340     0.0950    -0.3670 ca         1 239      -0.152600
     10 C1           1.2580     0.2150    -1.4320 ca         1 239      -0.036000
     11 C2           0.8400     0.0880    -2.7700 ca         1 239      -0.041000
     12 C10          1.7690     0.2030    -3.8190 ca         1 239      -0.096000
     13 C11          1.3510     0.0770    -5.1550 ca         1 239      -0.096000
     14 C23          0.8250     0.2380     1.0630 c          1 239       0.620700
     15 O35          2.0070     0.4570     1.3060 o          1 239      -0.581100
     16 N24         -0.1470     0.1090     2.0500 ns         1 239      -0.140000
     17 C25         -0.0930     0.1660     3.4710 ca         1 239      -0.019000
     18 C30         -1.3100     0.0560     4.1710 ca         1 239      -0.153500
     19 C29         -1.3400     0.1010     5.5750 ca         1 239      -0.071000
     20 C28         -0.1480     0.2550     6.3060 ca         1 239      -0.115300
     21 C27          1.0720     0.3630     5.6130 ca         1 239      -0.071000
     22 C26          1.1020     0.3180     4.2080 ca         1 239      -0.153500
     23 C37         -0.1770     0.3140     7.8270 c3         1 239       0.202100
     24 N38          0.0910    -1.0080     8.4190 n8         1 239      -0.998200
     25 H18         -1.5610    -1.0460    -8.2120 hn         1 239       0.372400
     26 H191        -0.2100     0.4680    -8.7170 hn         1 239       0.463000
     27 H192         0.9940     0.8650    -7.5700 hn         1 239       0.463000
     28 H13         -1.9800    -0.4860    -4.6160 ha         1 239       0.139000
     29 H4          -2.4890    -0.4800    -2.2350 ha         1 239       0.121000
     30 H5          -1.7780    -0.2610     0.0980 ha         1 239       0.114000
     31 H1           2.3080     0.4070    -1.2220 ha         1 239       0.137000
     32 H10          2.8200     0.3850    -3.6020 ha         1 239       0.121000
     33 H11          2.1000     0.1490    -5.9410 ha         1 239       0.121000
     34 H24         -1.0760    -0.0590     1.6900 hn         1 239       0.153000
     35 H30         -2.2430    -0.0640     3.6240 ha         1 239       0.127000
     36 H29         -2.2930     0.0170     6.0950 ha         1 239       0.119500
     37 H27          2.0010     0.4790     6.1670 ha         1 239       0.119500
     38 H26          2.0650     0.3990     3.7160 ha         1 239       0.127000
     39 H371         0.5800     1.0250     8.1880 h1         1 239       0.032700
     40 H372        -1.1620     0.6620     8.1680 h1         1 239       0.032700
     41 H381        -0.0310    -0.9460     9.4370 hn         1 239       0.396000
     42 H382        -0.6490    -1.6540     8.1230 hn         1 239       0.396000
@<TRIPOS>BOND
     1     1     2 2   
     2     1    25 1   
     3     2     3 1   
     4     2     4 1   
     5     3    26 1   
     6     3    27 1   
     7     4     5 ar  
     8     4    13 ar  
     9     5     6 ar  
    10     5    28 1   
    11     6     7 ar  
    12     6    11 ar  
    13     7     8 ar  
    14     7    29 1   
    15     8     9 ar  
    16     8    30 1   
    17     9    10 ar  
    18     9    14 1   
    19    10    11 ar  
    20    10    31 1   
    21    11    12 ar  
    22    12    13 ar  
    23    12    32 1   
    24    13    33 1   
    25    14    15 2   
    26    14    16 1   
    27    16    17 1   
    28    16    34 1   
    29    17    18 ar  
    30    17    22 ar  
    31    18    19 ar  
    32    18    35 1   
    33    19    20 ar  
    34    19    36 1   
    35    20    21 ar  
    36    20    23 1   
    37    21    22 ar  
    38    21    37 1   
    39    22    38 1   
    40    23    24 1   
    41    23    39 1   
    42    23    40 1   
    43    24    41 1   
    44    24    42 1   
@<TRIPOS>SUBSTRUCTURE
     1 239         1 TEMP              0 ****  ****    0 ROOT
