@<TRIPOS>MOLECULE
239
   42    44     1     0     0
SMALL
bcc


@<TRIPOS>ATOM
      1 N18         -1.5780    -0.6200    -7.0900 n2         1 239      -0.828100
      2 C17         -0.3820    -0.2720    -6.8080 ce         1 239       0.660800
      3 N19          0.6100     0.0070    -7.7020 nv         1 239      -0.966800
      4 C12          0.0220    -0.2050    -5.3740 ca         1 239      -0.135900
      5 C13         -0.9260     0.0580    -4.4180 ca         1 239      -0.069000
      6 C3          -0.5800     0.1380    -3.0530 ca         1 239      -0.032000
      7 C4          -1.5380     0.4260    -2.0540 ca         1 239      -0.111000
      8 C5          -1.1800     0.4940    -0.7380 ca         1 239      -0.116000
      9 C6           0.1660     0.2840    -0.3460 ca         1 239      -0.152600
     10 C1           1.1150     0.0230    -1.3010 ca         1 239      -0.054000
     11 C2           0.7680    -0.0670    -2.6660 ca         1 239      -0.041000
     12 C10          1.7280    -0.3520    -3.6640 ca         1 239      -0.114000
     13 C11          1.3670    -0.4160    -4.9800 ca         1 239      -0.114000
     14 C23          0.6140     0.3710     1.0780 c          1 239       0.687700
     15 O35          1.7600     0.6810     1.3590 o          1 239      -0.581100
     16 N24         -0.3350     0.0660     1.9960 ns         1 239      -0.466100
     17 C25         -0.2520     0.0800     3.3930 ca         1 239       0.073600
     18 C30         -1.3660    -0.3900     4.0900 ca         1 239      -0.171500
     19 C29         -1.3800    -0.4060     5.4740 ca         1 239      -0.089000
     20 C28         -0.2920     0.0470     6.2120 ca         1 239      -0.115300
     21 C27          0.8150     0.5090     5.5080 ca         1 239      -0.089000
     22 C26          0.8500     0.5330     4.1220 ca         1 239      -0.171500
     23 C37         -0.3220     0.0560     7.7190 c3         1 239       0.202100
     24 N38          0.9400    -0.3930     8.2830 n8         1 239      -0.887800
     25 H18         -1.7410    -0.5940    -8.0930 hn         1 239       0.372400
     26 H191         0.3460     0.1110    -8.6690 hn         1 239       0.407800
     27 H192         1.3580     0.6180    -7.4200 hn         1 239       0.407800
     28 H13         -1.9550     0.2190    -4.7130 ha         1 239       0.157000
     29 H4          -2.5660     0.6050    -2.3440 ha         1 239       0.139000
     30 H5          -1.9370     0.7450    -0.0070 ha         1 239       0.132000
     31 H1           2.1490    -0.1290    -1.0150 ha         1 239       0.155000
     32 H10          2.7570    -0.5240    -3.3740 ha         1 239       0.139000
     33 H11          2.1190    -0.6510    -5.7210 ha         1 239       0.139000
     34 H24         -1.2100    -0.2870     1.6400 hn         1 239       0.319500
     35 H30         -2.2300    -0.7520     3.5440 ha         1 239       0.145000
     36 H29         -2.2580    -0.7850     5.9840 ha         1 239       0.137500
     37 H27          1.6820     0.8580     6.0540 ha         1 239       0.137500
     38 H26          1.7300     0.9050     3.6260 ha         1 239       0.145000
     39 H371        -0.4940     1.0810     8.0620 h1         1 239       0.032700
     40 H372        -1.1930    -0.5210     8.0560 h1         1 239       0.032700
     41 H381         0.9170    -0.2810     9.2880 hn         1 239       0.340800
     42 H382         1.0500    -1.3850     8.1130 hn         1 239       0.340800
@<TRIPOS>BOND
     1     1     2 2   
     2     1    25 1   
     3     2     3 1   
     4     2     4 1   
     5     3    26 1   
     6     3    27 1   
     7     4     5 ar  
     8     4    13 ar  
     9     5     6 ar  
    10     5    28 1   
    11     6     7 ar  
    12     6    11 ar  
    13     7     8 ar  
    14     7    29 1   
    15     8     9 ar  
    16     8    30 1   
    17     9    10 ar  
    18     9    14 1   
    19    10    11 ar  
    20    10    31 1   
    21    11    12 ar  
    22    12    13 ar  
    23    12    32 1   
    24    13    33 1   
    25    14    15 2   
    26    14    16 1   
    27    16    17 1   
    28    16    34 1   
    29    17    18 ar  
    30    17    22 ar  
    31    18    19 ar  
    32    18    35 1   
    33    19    20 ar  
    34    19    36 1   
    35    20    21 ar  
    36    20    23 1   
    37    21    22 ar  
    38    21    37 1   
    39    22    38 1   
    40    23    24 1   
    41    23    39 1   
    42    23    40 1   
    43    24    41 1   
    44    24    42 1   
@<TRIPOS>SUBSTRUCTURE
     1 239         1 TEMP              0 ****  ****    0 ROOT
