@<TRIPOS>MOLECULE
23A
   16    16     1     0     0
SMALL
No Charge or Current Charge


@<TRIPOS>ATOM
      1 C7          -0.4080     0.1490     2.6430 c          1 23A       0.598500
      2 O8          -0.5220     0.1740     3.8660 o          1 23A      -0.562100
      3 C1           0.7700    -0.4840     1.9500 ca         1 23A      -0.276600
      4 C6           0.8210    -0.4680     0.5390 ca         1 23A      -0.063000
      5 C5           1.9040    -1.0490    -0.1440 ca         1 23A      -0.126000
      6 C2           1.8250    -1.0940     2.6670 ca         1 23A       0.132100
      7 O2           1.8070    -1.1270     4.0340 oh         1 23A      -0.561100
      8 C3           2.9110    -1.6760     1.9760 ca         1 23A       0.095100
      9 C4           2.9500    -1.6540     0.5740 ca         1 23A      -0.086000
     10 O3           3.9260    -2.2630     2.6800 oh         1 23A      -0.533100
     11 H7          -1.1830     0.6010     1.9850 h4         1 23A       0.005200
     12 H6           0.0200    -0.0040    -0.0350 ha         1 23A       0.117000
     13 H5           1.9330    -1.0310    -1.2310 ha         1 23A       0.123000
     14 HO2          0.9730    -0.6720     4.3170 ho         1 23A       0.519000
     15 H4           3.7870    -2.1030     0.0450 ha         1 23A       0.133000
     16 HO3          3.6940    -2.1640     3.6320 ho         1 23A       0.485000
@<TRIPOS>BOND
     1     1     2 2   
     2     1     3 1   
     3     1    11 1   
     4     3     4 ar  
     5     3     6 ar  
     6     4     5 ar  
     7     4    12 1   
     8     5     9 ar  
     9     5    13 1   
    10     6     7 1   
    11     6     8 ar  
    12     7    14 1   
    13     8     9 ar  
    14     8    10 1   
    15     9    15 1   
    16    10    16 1   
@<TRIPOS>SUBSTRUCTURE
     1 23A         1 TEMP              0 ****  ****    0 ROOT
