@<TRIPOS>MOLECULE
23A
   16    16     1     0     0
SMALL
bcc


@<TRIPOS>ATOM
      1 C7          -0.3640     0.1280     2.6110 c          1 23A       0.598500
      2 O8          -0.4940     0.1600     3.8250 o          1 23A      -0.562100
      3 C1           0.7650    -0.4810     1.9290 ca         1 23A      -0.276600
      4 C6           0.8170    -0.4650     0.5280 ca         1 23A      -0.081000
      5 C5           1.8840    -1.0390    -0.1250 ca         1 23A      -0.144000
      6 C2           1.7950    -1.0780     2.6670 ca         1 23A       0.132100
      7 O2           1.8100    -1.1300     4.0030 oh         1 23A      -0.522100
      8 C3           2.8800    -1.6590     1.9940 ca         1 23A       0.095100
      9 C4           2.9100    -1.6330     0.6110 ca         1 23A      -0.104000
     10 O3           3.8900    -2.2440     2.6660 oh         1 23A      -0.494100
     11 H7          -1.1280     0.5780     1.9590 h4         1 23A       0.005200
     12 H6           0.0110     0.0000    -0.0250 ha         1 23A       0.135000
     13 H5           1.9360    -1.0350    -1.2050 ha         1 23A       0.141000
     14 HO2          1.0000    -0.6980     4.3430 ho         1 23A       0.480000
     15 H4           3.7520    -2.0860     0.1010 ha         1 23A       0.151000
     16 HO3          3.7460    -2.1830     3.6180 ho         1 23A       0.446000
@<TRIPOS>BOND
     1     1     2 2   
     2     1     3 1   
     3     1    11 1   
     4     3     4 ar  
     5     3     6 ar  
     6     4     5 ar  
     7     4    12 1   
     8     5     9 ar  
     9     5    13 1   
    10     6     7 1   
    11     6     8 ar  
    12     7    14 1   
    13     8     9 ar  
    14     8    10 1   
    15     9    15 1   
    16    10    16 1   
@<TRIPOS>SUBSTRUCTURE
     1 23A         1 TEMP              0 ****  ****    0 ROOT
