@<TRIPOS>MOLECULE
23B
   18    17     1     0     0
SMALL
No Charge or Current Charge


@<TRIPOS>ATOM
      1 C1          -1.2950    -0.3470    -0.1600 c          1 23B       0.706000
      2 O1          -2.0460    -0.4050     0.8080 o          1 23B      -0.714000
      3 C2           0.0700     0.4260     0.0310 c3         1 23B      -0.005000
      4 O2          -1.5720    -0.8230    -1.2540 o          1 23B      -0.714000
      5 C3           1.2580    -0.5270    -0.3440 c3         1 23B       0.177300
      6 O3           0.2240     0.8610     1.4180 oh         1 23B      -0.722000
      7 C4           2.6500     0.1480    -0.4110 c3         1 23B      -0.115100
      8 O4           1.3270    -1.5640     0.6390 oh         1 23B      -0.664000
      9 C5           0.0350     1.7020    -0.8550 c3         1 23B      -0.066100
     10 H3           1.0590    -0.9630    -1.3340 h1         1 23B       0.074700
     11 HO3         -0.6630     0.6940     1.8270 ho         1 23B       0.479000
     12 H4           2.8890     0.6640     0.5260 hc         1 23B       0.022700
     13 H4A          3.4300    -0.6000    -0.5980 hc         1 23B       0.022700
     14 H4B          2.6940     0.8760    -1.2290 hc         1 23B       0.022700
     15 HO4          1.1570    -1.0920     1.4850 ho         1 23B       0.438000
     16 H5          -0.8700     2.2870    -0.6520 hc         1 23B       0.019700
     17 H5A          0.8990     2.3500    -0.6640 hc         1 23B       0.019700
     18 H5B          0.0350     1.4380    -1.9200 hc         1 23B       0.019700
@<TRIPOS>BOND
     1     1     2 1   
     2     1     3 1   
     3     1     4 1   
     4     3     5 1   
     5     3     6 1   
     6     3     9 1   
     7     5     7 1   
     8     5     8 1   
     9     5    10 1   
    10     6    11 1   
    11     7    12 1   
    12     7    13 1   
    13     7    14 1   
    14     8    15 1   
    15     9    16 1   
    16     9    17 1   
    17     9    18 1   
@<TRIPOS>SUBSTRUCTURE
     1 23B         1 TEMP              0 ****  ****    0 ROOT
