@<TRIPOS>MOLECULE
23B
   18    17     1     0     0
SMALL
bcc


@<TRIPOS>ATOM
      1 C1          -1.2560    -0.3040    -0.0770 c          1 23B       0.916600
      2 O1          -1.8940    -0.3610     1.0010 o          1 23B      -0.819300
      3 C2           0.0830     0.4780     0.0020 c3         1 23B      -0.028200
      4 O2          -1.5860    -0.7820    -1.1710 o          1 23B      -0.819300
      5 C3           1.2340    -0.4760    -0.3550 c3         1 23B       0.154100
      6 O3           0.2470     0.9130     1.3360 oh         1 23B      -0.659800
      7 C4           2.6070     0.1800    -0.3050 c3         1 23B      -0.115100
      8 O4           1.1940    -1.6140     0.4880 oh         1 23B      -0.601800
      9 C5           0.0270     1.6730    -0.9450 c3         1 23B      -0.066100
     10 H3           1.0580    -0.8500    -1.3670 h1         1 23B       0.074700
     11 HO3         -0.5740     0.5820     1.7540 ho         1 23B       0.440000
     12 H4           2.8110     0.6070     0.6790 hc         1 23B       0.022700
     13 H4A          3.3820    -0.5580    -0.5180 hc         1 23B       0.022700
     14 H4B          2.7070     0.9760    -1.0420 hc         1 23B       0.022700
     15 HO4          1.2160    -1.2890     1.3960 ho         1 23B       0.399000
     16 H5          -0.8570     2.2850    -0.7500 hc         1 23B       0.019700
     17 H5A          0.9000     2.3170    -0.8310 hc         1 23B       0.019700
     18 H5B         -0.0190     1.3490    -1.9840 hc         1 23B       0.019700
@<TRIPOS>BOND
     1     1     2 1   
     2     1     3 1   
     3     1     4 1   
     4     3     5 1   
     5     3     6 1   
     6     3     9 1   
     7     5     7 1   
     8     5     8 1   
     9     5    10 1   
    10     6    11 1   
    11     7    12 1   
    12     7    13 1   
    13     7    14 1   
    14     8    15 1   
    15     9    16 1   
    16     9    17 1   
    17     9    18 1   
@<TRIPOS>SUBSTRUCTURE
     1 23B         1 TEMP              0 ****  ****    0 ROOT
