@<TRIPOS>MOLECULE
23C
   42    45     1     0     0
SMALL
abcg2


@<TRIPOS>ATOM
      1 CD2         -3.0440     0.8870     0.2600 ca         1 23C      -0.026000
      2 CAN         -3.8220     0.4060    -0.8220 ca         1 23C      -0.064000
      3 CAH         -4.4690     1.2660    -1.6680 ca         1 23C      -0.137000
      4 CAG         -4.3730     2.6590    -1.4820 ca         1 23C      -0.117000
      5 CAL         -3.6350     3.1580    -0.4440 ca         1 23C      -0.113000
      6 CAX         -2.9570     2.2930     0.4480 ca         1 23C      -0.030000
      7 CAM         -2.1980     2.8080     1.5250 ca         1 23C      -0.132000
      8 CAI         -1.5540     1.9590     2.3790 ca         1 23C      -0.093000
      9 CD1         -1.6370     0.5660     2.1880 ca         1 23C      -0.126000
     10 CG          -2.3570     0.0160     1.1570 ca         1 23C      -0.029300
     11 CB          -2.3630    -1.4740     0.9690 c3         1 23C      -0.041100
     12 CA          -1.4280    -1.9330    -0.1600 c3         1 23C      -0.026300
     13 C           -1.3190    -3.4770    -0.2930 c          1 23C       0.728000
     14 OXT         -2.3470    -4.1120     0.0010 o          1 23C      -0.720000
     15 O           -0.2460    -3.9210    -0.7290 o          1 23C      -0.720000
     16 N           -0.1230    -1.3200    -0.0570 n          1 23C      -0.348400
     17 CAW          0.3940    -0.4310    -0.9830 c          1 23C       0.595600
     18 OAD         -0.1750    -0.0330    -1.9690 o          1 23C      -0.535000
     19 CBA          1.7580    -0.0910    -0.5130 ca         1 23C      -0.170600
     20 CAP          2.6990     0.7580    -1.0490 ca         1 23C      -0.025000
     21 CAT          3.9200     0.8910    -0.3810 ca         1 23C      -0.143600
     22 CAR          4.9950     1.8290    -0.9300 c          1 23C       0.716600
     23 OAE          4.7070     2.4380    -1.9760 o          1 23C      -0.726500
     24 OAA          6.0540     1.8980    -0.2820 o          1 23C      -0.726500
     25 CAK          4.1480     0.1660     0.7900 ca         1 23C      -0.094000
     26 CAO          3.1890    -0.6930     1.3250 ca         1 23C      -0.090000
     27 CAZ          1.9940    -0.8050     0.6500 ca         1 23C      -0.160600
     28 CAV          0.7820    -1.6050     0.9480 c          1 23C       0.602600
     29 OAC          0.5890    -2.3400     1.8850 o          1 23C      -0.526000
     30 HAN         -3.9190    -0.6590    -0.9840 ha         1 23C       0.131000
     31 HAH         -5.0580     0.8740    -2.4870 ha         1 23C       0.098000
     32 HAG         -4.8870     3.3300    -2.1580 ha         1 23C       0.090000
     33 HAL         -3.5610     4.2280    -0.2880 ha         1 23C       0.094000
     34 HAM         -2.1380     3.8810     1.6630 ha         1 23C       0.095000
     35 HAI         -0.9780     2.3500     3.2070 ha         1 23C       0.099000
     36 HD1         -1.1150    -0.0880     2.8770 ha         1 23C       0.122000
     37 HB          -2.0720    -1.9520     1.9040 hc         1 23C       0.062700
     38 HBA         -3.3630    -1.8420     0.7390 hc         1 23C       0.062700
     39 HA          -1.8370    -1.5740    -1.1090 h1         1 23C       0.055700
     40 HAP          2.5100     1.3120    -1.9580 ha         1 23C       0.143000
     41 HAK          5.0990     0.2780     1.2920 ha         1 23C       0.121000
     42 HAO          3.3830    -1.2440     2.2360 ha         1 23C       0.104000
@<TRIPOS>BOND
     1     1     2 ar  
     2     1     6 ar  
     3     1    10 ar  
     4     2     3 ar  
     5     2    30 1   
     6     3     4 ar  
     7     3    31 1   
     8     4     5 ar  
     9     4    32 1   
    10     5     6 ar  
    11     5    33 1   
    12     6     7 ar  
    13     7     8 ar  
    14     7    34 1   
    15     8     9 ar  
    16     8    35 1   
    17     9    10 ar  
    18     9    36 1   
    19    10    11 1   
    20    11    12 1   
    21    11    37 1   
    22    11    38 1   
    23    12    13 1   
    24    12    16 1   
    25    12    39 1   
    26    13    14 1   
    27    13    15 1   
    28    16    17 1   
    29    16    28 1   
    30    17    18 2   
    31    17    19 1   
    32    19    20 ar  
    33    19    27 ar  
    34    20    21 ar  
    35    20    40 1   
    36    21    22 1   
    37    21    25 ar  
    38    22    23 1   
    39    22    24 1   
    40    25    26 ar  
    41    25    41 1   
    42    26    27 ar  
    43    26    42 1   
    44    27    28 1   
    45    28    29 2   
@<TRIPOS>SUBSTRUCTURE
     1 23C         1 TEMP              0 ****  ****    0 ROOT
