@<TRIPOS>MOLECULE
23C
   42    45     1     0     0
SMALL
No Charge or Current Charge


@<TRIPOS>ATOM
      1 CD2         -3.1380     0.9350     0.1870 ca         1 23C      -0.026000
      2 CAN         -3.9490     0.3680    -0.8270 ca         1 23C      -0.064000
      3 CAH         -4.6990     1.1900    -1.6860 ca         1 23C      -0.137000
      4 CAG         -4.6520     2.5850    -1.5490 ca         1 23C      -0.117000
      5 CAL         -3.8520     3.1620    -0.5520 ca         1 23C      -0.113000
      6 CAX         -3.0970     2.3470     0.3130 ca         1 23C      -0.030000
      7 CAM         -2.2990     2.9490     1.3020 ca         1 23C      -0.132000
      8 CAI         -1.5380     2.1570     2.1700 ca         1 23C      -0.093000
      9 CD1         -1.5730     0.7600     2.0560 ca         1 23C      -0.126000
     10 CG          -2.3660     0.1330     1.0730 ca         1 23C      -0.029300
     11 CB          -2.3380    -1.3970     0.9990 c3         1 23C      -0.041100
     12 CA          -1.4020    -1.9390    -0.1190 c3         1 23C      -0.026300
     13 C           -1.4190    -3.4970    -0.2510 c          1 23C       0.728000
     14 OXT         -2.0600    -4.1670     0.5490 o          1 23C      -0.720000
     15 O           -0.8170    -3.9900    -1.1960 o          1 23C      -0.720000
     16 N           -0.0300    -1.3590    -0.0020 n          1 23C      -0.348400
     17 CAW          0.4090    -0.2690    -0.7600 c          1 23C       0.595600
     18 OAD         -0.2250     0.3610    -1.5960 o          1 23C      -0.535000
     19 CBA          1.8250    -0.0520    -0.3480 ca         1 23C      -0.170600
     20 CAP          2.7470     0.9130    -0.7750 ca         1 23C      -0.025000
     21 CAT          4.0530     0.8990    -0.2180 ca         1 23C      -0.143600
     22 CAR          5.0810     1.9280    -0.6540 c          1 23C       0.716600
     23 OAE          4.7580     2.7570    -1.4940 o          1 23C      -0.726500
     24 OAA          6.1960     1.8940    -0.1530 o          1 23C      -0.726500
     25 CAK          4.3810    -0.0940     0.7530 ca         1 23C      -0.094000
     26 CAO          3.4360    -1.0560     1.1670 ca         1 23C      -0.090000
     27 CAZ          2.1580    -1.0110     0.5960 ca         1 23C      -0.160600
     28 CAV          0.9660    -1.8790     0.8310 c          1 23C       0.602600
     29 OAC          0.8750    -2.8220     1.6050 o          1 23C      -0.526000
     30 HAN         -4.0110    -0.7060    -0.9670 ha         1 23C       0.131000
     31 HAH         -5.3180     0.7420    -2.4600 ha         1 23C       0.098000
     32 HAG         -5.2340     3.2180    -2.2160 ha         1 23C       0.090000
     33 HAL         -3.8190     4.2440    -0.4530 ha         1 23C       0.094000
     34 HAM         -2.2670     4.0320     1.3970 ha         1 23C       0.095000
     35 HAI         -0.9190     2.6250     2.9320 ha         1 23C       0.099000
     36 HD1         -0.9710     0.1600     2.7350 ha         1 23C       0.122000
     37 HB          -2.0020    -1.8070     1.9600 hc         1 23C       0.062700
     38 HBA         -3.3510    -1.7930     0.8620 hc         1 23C       0.062700
     39 HA          -1.8170    -1.5860    -1.0710 h1         1 23C       0.055700
     40 HAP          2.4560     1.6530    -1.5190 ha         1 23C       0.143000
     41 HAK          5.3770    -0.1200     1.1910 ha         1 23C       0.121000
     42 HAO          3.6930    -1.8100     1.9080 ha         1 23C       0.104000
@<TRIPOS>BOND
     1     1     2 ar  
     2     1     6 ar  
     3     1    10 ar  
     4     2     3 ar  
     5     2    30 1   
     6     3     4 ar  
     7     3    31 1   
     8     4     5 ar  
     9     4    32 1   
    10     5     6 ar  
    11     5    33 1   
    12     6     7 ar  
    13     7     8 ar  
    14     7    34 1   
    15     8     9 ar  
    16     8    35 1   
    17     9    10 ar  
    18     9    36 1   
    19    10    11 1   
    20    11    12 1   
    21    11    37 1   
    22    11    38 1   
    23    12    13 1   
    24    12    16 1   
    25    12    39 1   
    26    13    14 1   
    27    13    15 1   
    28    16    17 1   
    29    16    28 1   
    30    17    18 2   
    31    17    19 1   
    32    19    20 ar  
    33    19    27 ar  
    34    20    21 ar  
    35    20    40 1   
    36    21    22 1   
    37    21    25 ar  
    38    22    23 1   
    39    22    24 1   
    40    25    26 ar  
    41    25    41 1   
    42    26    27 ar  
    43    26    42 1   
    44    27    28 1   
    45    28    29 2   
@<TRIPOS>SUBSTRUCTURE
     1 23C         1 TEMP              0 ****  ****    0 ROOT
