@<TRIPOS>MOLECULE
23D
   51    54     1     0     0
SMALL
No Charge or Current Charge


@<TRIPOS>ATOM
      1 CAS         16.6020    31.9400     5.6150 ca         1 23D      -0.133000
      2 CAQ         16.9860    32.9420     4.7120 ca         1 23D       0.147000
      3 Cl1         17.5250    32.5030     3.0970 cl         1 23D      -0.209000
      4 CAP         16.9380    34.2930     5.0890 ca         1 23D      -0.135000
      5 CAO         16.4970    34.6430     6.3750 ca         1 23D      -0.074000
      6 CAN         16.1150    33.6360     7.2800 ca         1 23D      -0.171000
      7 CAM         16.1760    32.2800     6.9130 ca         1 23D       0.320000
      8 N6          15.7800    31.3270     7.8560 nu         1 23D      -0.921900
      9 C6          16.0290    29.9740     8.0600 ca         1 23D       0.478900
     10 N1          16.8800    29.3330     7.2440 nb         1 23D      -0.326000
     11 C5          15.4230    29.3030     9.1410 ca         1 23D      -0.139600
     12 N7          14.5390    29.7970    10.1010 nc         1 23D      -0.547100
     13 C8          14.3110    28.7090    10.8610 cd         1 23D       0.396700
     14 N9          15.0070    27.5710    10.4210 na         1 23D      -0.287300
     15 CAZ         15.0250    26.2130    10.9870 c3         1 23D       0.088600
     16 CBA         16.1970    25.9920    11.9580 c3         1 23D      -0.114100
     17 C4          15.7140    27.9740     9.3200 ca         1 23D       0.166500
     18 N3          16.5530    27.3070     8.5070 nb         1 23D      -0.288000
     19 C2          17.0900    28.0300     7.5070 ca         1 23D       0.433900
     20 N2          17.9520    27.3360     6.6740 nu         1 23D      -0.916100
     21 CAG         18.5050    27.8350     5.3890 c6         1 23D       0.232500
     22 CAF         17.4340    27.7550     4.2710 c6         1 23D      -0.093400
     23 CAE         17.9400    28.3990     2.9470 c6         1 23D      -0.072400
     24 CAD         19.4920    28.4220     2.8250 c6         1 23D      -0.076400
     25 CAC         20.1310    27.1600     3.4560 c6         1 23D      -0.063400
     26 CAA         19.7880    27.0160     4.9730 c6         1 23D       0.159500
     27 NAB         20.9520    27.3540     5.8310 n8         1 23D      -0.995200
     28 HAS         16.6250    30.9090     5.2880 ha         1 23D       0.168000
     29 HAP         17.2360    35.0650     4.3840 ha         1 23D       0.130000
     30 HAO         16.4530    35.6890     6.6710 ha         1 23D       0.117000
     31 HAN         15.7780    33.9150     8.2750 ha         1 23D       0.116000
     32 HN6         15.2410    31.7060     8.6340 hn         1 23D       0.519000
     33 H8          13.6680    28.6700    11.7330 h5         1 23D       0.063800
     34 HAZ1        15.0890    25.4860    10.1660 h1         1 23D       0.060700
     35 HAZ2        14.0780    26.0380    11.5150 h1         1 23D       0.060700
     36 HBA1        16.1420    26.6940    12.7980 hc         1 23D       0.049367
     37 HBA2        16.1720    24.9720    12.3590 hc         1 23D       0.049367
     38 HBA3        17.1560    26.1380    11.4460 hc         1 23D       0.049367
     39 HN2         18.0520    26.3460     6.8930 hn         1 23D       0.489000
     40 HAG         18.8100    28.8900     5.4940 h1         1 23D       0.099700
     41 HAF1        16.5060    28.2510     4.5850 hc         1 23D       0.045200
     42 HAF2        17.1750    26.7020     4.0930 hc         1 23D       0.045200
     43 HAE1        17.5610    29.4270     2.8660 hc         1 23D       0.043200
     44 HAE2        17.5090    27.8520     2.0970 hc         1 23D       0.043200
     45 HAD1        19.8900    29.3190     3.3200 hc         1 23D       0.049700
     46 HAD2        19.7800    28.5040     1.7680 hc         1 23D       0.049700
     47 HAC1        21.2180    27.1710     3.2980 hc         1 23D       0.041200
     48 HAC2        19.7610    26.2740     2.9220 hc         1 23D       0.041200
     49 HAA         19.5840    25.9510     5.1610 h1         1 23D       0.008700
     50 HAB1        20.6240    27.3670     6.8040 hn         1 23D       0.397000
     51 HAB2        21.6140    26.5710     5.8100 hn         1 23D       0.397000
@<TRIPOS>BOND
     1     1     2 ar  
     2     1     7 ar  
     3     1    28 1   
     4     2     3 1   
     5     2     4 ar  
     6     4     5 ar  
     7     4    29 1   
     8     5     6 ar  
     9     5    30 1   
    10     6     7 ar  
    11     6    31 1   
    12     7     8 1   
    13     8     9 1   
    14     8    32 1   
    15     9    10 ar  
    16     9    11 ar  
    17    10    19 ar  
    18    11    12 1   
    19    11    17 ar  
    20    12    13 2   
    21    13    14 1   
    22    13    33 1   
    23    14    15 1   
    24    14    17 1   
    25    15    16 1   
    26    15    34 1   
    27    15    35 1   
    28    16    36 1   
    29    16    37 1   
    30    16    38 1   
    31    17    18 ar  
    32    18    19 ar  
    33    19    20 1   
    34    20    21 1   
    35    20    39 1   
    36    21    22 1   
    37    21    26 1   
    38    21    40 1   
    39    22    23 1   
    40    22    41 1   
    41    22    42 1   
    42    23    24 1   
    43    23    43 1   
    44    23    44 1   
    45    24    25 1   
    46    24    45 1   
    47    24    46 1   
    48    25    26 1   
    49    25    47 1   
    50    25    48 1   
    51    26    27 1   
    52    26    49 1   
    53    27    50 1   
    54    27    51 1   
@<TRIPOS>SUBSTRUCTURE
     1 23D         1 TEMP              0 ****  ****    0 ROOT
