@<TRIPOS>MOLECULE
23D
   51    54     1     0     0
SMALL
abcg2


@<TRIPOS>ATOM
      1 CAS         17.2070    31.8130     5.8960 ca         1 23D      -0.133000
      2 CAQ         17.6100    32.7800     4.9910 ca         1 23D       0.147000
      3 CL1         18.7650    32.3330     3.7730 cl         1 23D      -0.209000
      4 CAP         17.1380    34.0800     5.0210 ca         1 23D      -0.135000
      5 CAO         16.2240    34.4110     6.0130 ca         1 23D      -0.074000
      6 CAN         15.8010    33.4720     6.9340 ca         1 23D      -0.171000
      7 CAM         16.2870    32.1600     6.8880 ca         1 23D       0.320000
      8 N6          15.8180    31.2860     7.8590 nu         1 23D      -0.921900
      9 C6          16.0610    29.9680     8.0700 ca         1 23D       0.478900
     10 N1          16.8520    29.2710     7.2730 nb         1 23D      -0.326000
     11 C5          15.4530    29.3250     9.1600 ca         1 23D      -0.139600
     12 N7          14.6010    29.7470    10.1490 nc         1 23D      -0.547100
     13 C8          14.3940    28.6800    10.8620 cd         1 23D       0.396700
     14 N9          15.0510    27.5720    10.3980 na         1 23D      -0.287300
     15 CAZ         15.0740    26.2540    11.0020 c3         1 23D       0.088600
     16 CBA         16.3410    26.0060    11.8020 c3         1 23D      -0.114100
     17 C4          15.7460    27.9750     9.2990 ca         1 23D       0.166500
     18 N3          16.5300    27.2470     8.5140 nb         1 23D      -0.288000
     19 C2          17.0530    27.9630     7.5180 ca         1 23D       0.433900
     20 N2          17.8900    27.3080     6.6790 nu         1 23D      -0.916100
     21 CAG         18.3600    27.8340     5.4160 c6         1 23D       0.232500
     22 CAF         17.3160    27.7950     4.3030 c6         1 23D      -0.093400
     23 CAE         17.8160    28.5790     3.0790 c6         1 23D      -0.072400
     24 CAD         19.3460    28.5370     2.9590 c6         1 23D      -0.076400
     25 CAC         19.8790    27.2150     3.4920 c6         1 23D      -0.063400
     26 CAA         19.6280    27.0750     5.0010 c6         1 23D       0.159500
     27 NAB         20.7580    27.6060     5.7510 n8         1 23D      -0.995200
     28 HAS         17.5920    30.8080     5.8400 ha         1 23D       0.168000
     29 HAP         17.4700    34.8140     4.3010 ha         1 23D       0.130000
     30 HAO         15.8360    35.4190     6.0660 ha         1 23D       0.117000
     31 HAN         15.0880    33.7550     7.7000 ha         1 23D       0.116000
     32 HN6         15.1820    31.6990     8.5260 hn         1 23D       0.519000
     33 H8          13.7650    28.6260    11.7380 h5         1 23D       0.063800
     34 HAZ1        14.9670    25.5140    10.2100 h1         1 23D       0.060700
     35 HAZ2        14.1930    26.1740    11.6390 h1         1 23D       0.060700
     36 HBA1        16.4490    26.7370    12.6030 hc         1 23D       0.049367
     37 HBA2        16.3060    25.0140    12.2500 hc         1 23D       0.049367
     38 HBA3        17.2240    26.0570    11.1660 hc         1 23D       0.049367
     39 HN2         17.8930    26.3050     6.7880 hn         1 23D       0.489000
     40 HAG         18.6460    28.8760     5.5840 h1         1 23D       0.099700
     41 HAF1        16.3740    28.2130     4.6610 hc         1 23D       0.045200
     42 HAF2        17.1140    26.7520     4.0400 hc         1 23D       0.045200
     43 HAE1        17.4850    29.6180     3.1430 hc         1 23D       0.043200
     44 HAE2        17.3600    28.1650     2.1760 hc         1 23D       0.043200
     45 HAD1        19.7920    29.3590     3.5240 hc         1 23D       0.049700
     46 HAD2        19.6460    28.6870     1.9200 hc         1 23D       0.049700
     47 HAC1        20.9490    27.1100     3.2960 hc         1 23D       0.041200
     48 HAC2        19.3940    26.3900     2.9630 hc         1 23D       0.041200
     49 HAA         19.4560    26.0060     5.2090 h1         1 23D       0.008700
     50 HAB1        20.5580    27.5450     6.7430 hn         1 23D       0.397000
     51 HAB2        21.5670    27.0150     5.6010 hn         1 23D       0.397000
@<TRIPOS>BOND
     1     1     2 ar  
     2     1     7 ar  
     3     1    28 1   
     4     2     3 1   
     5     2     4 ar  
     6     4     5 ar  
     7     4    29 1   
     8     5     6 ar  
     9     5    30 1   
    10     6     7 ar  
    11     6    31 1   
    12     7     8 1   
    13     8     9 1   
    14     8    32 1   
    15     9    10 ar  
    16     9    11 ar  
    17    10    19 ar  
    18    11    12 1   
    19    11    17 ar  
    20    12    13 2   
    21    13    14 1   
    22    13    33 1   
    23    14    15 1   
    24    14    17 1   
    25    15    16 1   
    26    15    34 1   
    27    15    35 1   
    28    16    36 1   
    29    16    37 1   
    30    16    38 1   
    31    17    18 ar  
    32    18    19 ar  
    33    19    20 1   
    34    20    21 1   
    35    20    39 1   
    36    21    22 1   
    37    21    26 1   
    38    21    40 1   
    39    22    23 1   
    40    22    41 1   
    41    22    42 1   
    42    23    24 1   
    43    23    43 1   
    44    23    44 1   
    45    24    25 1   
    46    24    45 1   
    47    24    46 1   
    48    25    26 1   
    49    25    47 1   
    50    25    48 1   
    51    26    27 1   
    52    26    49 1   
    53    27    50 1   
    54    27    51 1   
@<TRIPOS>SUBSTRUCTURE
     1 23D         1 TEMP              0 ****  ****    0 ROOT
