@<TRIPOS>MOLECULE
23E
   84    90     1     0     0
SMALL
bcc


@<TRIPOS>ATOM
      1 N1          -1.6600     2.9160    -0.1630 ns         1 23E      -0.584900
      2 C2          -2.9030     3.5640     0.2170 c5         1 23E       0.045400
      3 C3          -3.9530     2.5380     0.6530 c          1 23E       0.686100
      4 N4          -4.0030     1.4350    -0.1360 ns         1 23E      -0.455100
      5 C5          -4.8050     0.2990    -0.0210 ca         1 23E       0.031600
      6 O6          -4.7150     2.7520     1.5760 o          1 23E      -0.577100
      7 C7          -4.5080    -0.7700    -0.8680 ca         1 23E      -0.164000
      8 C8          -5.2490    -1.9350    -0.8240 ca         1 23E      -0.119000
      9 C9          -6.3160    -2.0890     0.0640 ca         1 23E      -0.015800
     10 C10         -6.6050    -1.0100     0.9020 ca         1 23E      -0.119000
     11 C11         -5.8750     0.1660     0.8710 ca         1 23E      -0.164000
     12 C12         -7.0620    -3.3460     0.0690 ce         1 23E      -0.188200
     13 C13         -8.1060    -3.6680     0.8380 cf         1 23E      -0.163200
     14 C14         -8.8110    -5.0020     0.7570 c          1 23E       0.905800
     15 O15         -8.3880    -5.8380    -0.0660 o          1 23E      -0.829800
     16 C16         -3.3970     4.3760    -0.9920 c5         1 23E      -0.085900
     17 C17         -2.6580     4.6710     1.2460 c5         1 23E      -0.085900
     18 C18         -2.4890     5.6160    -1.0100 c5         1 23E      -0.081400
     19 C19         -1.9670     5.7720     0.4370 c5         1 23E      -0.081400
     20 O20         -9.7760    -5.1460     1.5380 o          1 23E      -0.829800
     21 C21         -0.9820     2.0990     0.6710 c          1 23E       0.671700
     22 C22          0.3630     1.6640     0.2070 ca         1 23E      -0.135600
     23 C23          1.1730     2.4980    -0.5900 ca         1 23E      -0.141000
     24 C24          2.4300     2.1030    -0.9900 ca         1 23E      -0.092000
     25 C25          0.8180     0.4190     0.6100 ca         1 23E      -0.076000
     26 N26          2.7380    -1.1590     0.3810 na         1 23E      -0.044400
     27 C27          2.0740     0.0150     0.1750 ca         1 23E      -0.045200
     28 C28          2.9070     0.8390    -0.6170 ca         1 23E      -0.076800
     29 C29          4.1200     0.1200    -0.8600 cc         1 23E      -0.113400
     30 C30          3.9640    -1.0990    -0.2400 cd         1 23E       0.003700
     31 C31          5.3400     0.6300    -1.5660 c6         1 23E       0.011500
     32 C32          4.8720    -2.2400    -0.1680 ca         1 23E      -0.058800
     33 C33          5.0930     0.8770    -3.0590 c6         1 23E      -0.069400
     34 C34          6.3470     1.3930    -3.7580 c6         1 23E      -0.074900
     35 C35          6.8890     2.6460    -3.0790 c6         1 23E      -0.074400
     36 C36          7.1550     2.3920    -1.6000 c6         1 23E      -0.074900
     37 C37          5.9020     1.8890    -0.8900 c6         1 23E      -0.069400
     38 O38         -1.4580     1.7210     1.7320 o          1 23E      -0.572100
     39 C39          5.5560    -2.6540    -1.3150 ca         1 23E      -0.087000
     40 C40          6.4910    -3.6720    -1.2720 ca         1 23E      -0.147000
     41 C41          6.7490    -4.3140    -0.0670 ca         1 23E      -0.097000
     42 C42          6.0530    -3.9510     1.0720 ca         1 23E      -0.168000
     43 C43          5.1080    -2.9270     1.0330 ca         1 23E       0.076600
     44 C44          2.3000    -2.2750     1.1750 c3         1 23E      -0.037700
     45 N45          4.4650    -2.5890     2.2350 ns         1 23E      -0.478100
     46 C46          3.1390    -2.3740     2.4360 c          1 23E       0.696500
     47 O47          2.6660    -2.2550     3.5480 o          1 23E      -0.590500
     48 HN1         -1.2770     3.1150    -1.0740 hn         1 23E       0.318500
     49 HN4         -3.3080     1.3810    -0.8660 hn         1 23E       0.307500
     50 H7          -3.6830    -0.6890    -1.5680 ha         1 23E       0.129500
     51 H8          -4.9910    -2.7450    -1.4950 ha         1 23E       0.132500
     52 H10         -7.4250    -1.0740     1.6050 ha         1 23E       0.132500
     53 H11         -6.1430     0.9670     1.5390 ha         1 23E       0.129500
     54 H12         -6.7140    -4.0910    -0.6410 ha         1 23E       0.138000
     55 H13         -8.4970    -2.9620     1.5660 ha         1 23E       0.094000
     56 H16         -3.3770     3.8040    -1.9220 hc         1 23E       0.067450
     57 H16A        -4.4350     4.6640    -0.8160 hc         1 23E       0.067450
     58 H17         -3.6200     5.0250     1.6200 hc         1 23E       0.067450
     59 H17A        -2.0800     4.3340     2.1060 hc         1 23E       0.067450
     60 H18         -1.6630     5.4860    -1.7110 hc         1 23E       0.039700
     61 H18A        -3.0410     6.4920    -1.3470 hc         1 23E       0.039700
     62 H19         -2.1830     6.7580     0.8480 hc         1 23E       0.039700
     63 H19A        -0.8840     5.6510     0.4690 hc         1 23E       0.039700
     64 H23          0.8290     3.4850    -0.8700 ha         1 23E       0.127000
     65 H24          3.0310     2.7740    -1.5890 ha         1 23E       0.133000
     66 H25          0.1980    -0.2120     1.2340 ha         1 23E       0.165000
     67 H31          6.1200    -0.1350    -1.4880 hc         1 23E       0.048700
     68 H33          4.7500    -0.0480    -3.5330 hc         1 23E       0.043200
     69 H33A         4.2840     1.6040    -3.1830 hc         1 23E       0.043200
     70 H34          7.1160     0.6130    -3.7400 hc         1 23E       0.036450
     71 H34A         6.1310     1.5910    -4.8100 hc         1 23E       0.036450
     72 H35          7.8010     2.9810    -3.5780 hc         1 23E       0.036200
     73 H35A         6.1600     3.4590    -3.1810 hc         1 23E       0.036200
     74 H36          7.9540     1.6480    -1.4980 hc         1 23E       0.036450
     75 H36A         7.5150     3.3020    -1.1130 hc         1 23E       0.036450
     76 H37          5.1500     2.6830    -0.8910 hc         1 23E       0.043200
     77 H37A         6.1200     1.6690     0.1580 hc         1 23E       0.043200
     78 H39          5.3420    -2.1640    -2.2560 ha         1 23E       0.145000
     79 H40          7.0110    -3.9660    -2.1730 ha         1 23E       0.137000
     80 H41          7.4790    -5.1100    -0.0170 ha         1 23E       0.135000
     81 H42          6.2340    -4.4660     2.0070 ha         1 23E       0.137000
     82 H44          1.2590    -2.1380     1.4550 h1         1 23E       0.093200
     83 H44A         2.3630    -3.2010     0.5960 h1         1 23E       0.093200
     84 HN45         5.0020    -2.7390     3.0790 hn         1 23E       0.322500
@<TRIPOS>BOND
     1     1     2 1   
     2     1    21 1   
     3     1    48 1   
     4     2     3 1   
     5     2    16 1   
     6     2    17 1   
     7     3     4 1   
     8     3     6 2   
     9     4     5 1   
    10     4    49 1   
    11     5     7 ar  
    12     5    11 ar  
    13     7     8 ar  
    14     7    50 1   
    15     8     9 ar  
    16     8    51 1   
    17     9    10 ar  
    18     9    12 1   
    19    10    11 ar  
    20    10    52 1   
    21    11    53 1   
    22    12    13 2   
    23    12    54 1   
    24    13    14 1   
    25    13    55 1   
    26    14    15 1   
    27    14    20 1   
    28    16    18 1   
    29    16    56 1   
    30    16    57 1   
    31    17    19 1   
    32    17    58 1   
    33    17    59 1   
    34    18    19 1   
    35    18    60 1   
    36    18    61 1   
    37    19    62 1   
    38    19    63 1   
    39    21    22 1   
    40    21    38 2   
    41    22    23 ar  
    42    22    25 ar  
    43    23    24 ar  
    44    23    64 1   
    45    24    28 ar  
    46    24    65 1   
    47    25    27 ar  
    48    25    66 1   
    49    26    27 1   
    50    26    30 1   
    51    26    44 1   
    52    27    28 ar  
    53    28    29 1   
    54    29    30 2   
    55    29    31 1   
    56    30    32 1   
    57    31    33 1   
    58    31    37 1   
    59    31    67 1   
    60    32    39 ar  
    61    32    43 ar  
    62    33    34 1   
    63    33    68 1   
    64    33    69 1   
    65    34    35 1   
    66    34    70 1   
    67    34    71 1   
    68    35    36 1   
    69    35    72 1   
    70    35    73 1   
    71    36    37 1   
    72    36    74 1   
    73    36    75 1   
    74    37    76 1   
    75    37    77 1   
    76    39    40 ar  
    77    39    78 1   
    78    40    41 ar  
    79    40    79 1   
    80    41    42 ar  
    81    41    80 1   
    82    42    43 ar  
    83    42    81 1   
    84    43    45 1   
    85    44    46 1   
    86    44    82 1   
    87    44    83 1   
    88    45    46 1   
    89    45    84 1   
    90    46    47 2   
@<TRIPOS>SUBSTRUCTURE
     1 23E         1 TEMP              0 ****  ****    0 ROOT
