@<TRIPOS>MOLECULE
23E
   84    90     1     0     0
SMALL
No Charge or Current Charge


@<TRIPOS>ATOM
      1 N1          -1.7190     2.9980     0.1820 ns         1 23E      -0.517900
      2 C2          -2.9590     3.6520     0.7140 c5         1 23E       0.045400
      3 C3          -4.2190     2.6940     0.8290 c          1 23E       0.619100
      4 N4          -3.9960     1.5120     0.1270 ns         1 23E      -0.129000
      5 C5          -4.7920     0.3520    -0.0820 ca         1 23E      -0.061000
      6 O6          -5.2290     2.9310     1.4860 o          1 23E      -0.577100
      7 C7          -4.1950    -0.7360    -0.7430 ca         1 23E      -0.146000
      8 C8          -4.9220    -1.9140    -0.9870 ca         1 23E      -0.101000
      9 C9          -6.2640    -2.0260    -0.5770 ca         1 23E      -0.015800
     10 C10         -6.8650    -0.9340     0.0810 ca         1 23E      -0.101000
     11 C11         -6.1380     0.2450     0.3260 ca         1 23E      -0.146000
     12 C12         -7.0110    -3.2890    -0.8510 ce         1 23E      -0.238200
     13 C13         -8.3050    -3.6170    -0.5420 cf         1 23E      -0.213200
     14 C14         -8.9700    -4.9170    -0.8600 c          1 23E       0.695200
     15 O15         -8.3340    -5.7820    -1.4440 o          1 23E      -0.724500
     16 C16         -3.2510     4.8310    -0.2590 c5         1 23E      -0.085900
     17 C17         -2.6270     4.4420     2.0210 c5         1 23E      -0.085900
     18 C18         -2.1590     5.8990     0.0820 c5         1 23E      -0.081400
     19 C19         -1.6530     5.5470     1.5200 c5         1 23E      -0.081400
     20 O20        -10.1330    -5.0540    -0.5150 o          1 23E      -0.724500
     21 C21         -1.0630     2.0230     0.9210 c          1 23E       0.604700
     22 C22          0.2720     1.5620     0.3720 ca         1 23E      -0.135600
     23 C23          0.8360     2.1090    -0.8160 ca         1 23E      -0.123000
     24 C24          2.0790     1.6560    -1.2980 ca         1 23E      -0.074000
     25 C25          0.9870     0.5490     1.0590 ca         1 23E      -0.058000
     26 N26          3.0780    -0.8560     1.0460 na         1 23E      -0.073700
     27 C27          2.2270     0.1180     0.5520 ca         1 23E      -0.045200
     28 C28          2.7560     0.6560    -0.5840 ca         1 23E      -0.076800
     29 C29          4.0260     0.0140    -0.8430 cc         1 23E      -0.113400
     30 C30          4.1890    -0.9380     0.1810 cd         1 23E       0.003700
     31 C31          5.0750     0.3750    -1.8900 c6         1 23E       0.011500
     32 C32          5.2110    -2.0130     0.3080 ca         1 23E      -0.058800
     33 C33          4.5640     0.0840    -3.3290 c6         1 23E      -0.069400
     34 C34          5.6310     0.4570    -4.3880 c6         1 23E      -0.074900
     35 C35          6.0740     1.9340    -4.2410 c6         1 23E      -0.074400
     36 C36          6.5850     2.2280    -2.8090 c6         1 23E      -0.074900
     37 C37          5.5200     1.8570    -1.7460 c6         1 23E      -0.069400
     38 O38         -1.5390     1.5440     1.9410 o          1 23E      -0.572100
     39 C39          5.7550    -2.6010    -0.8590 ca         1 23E      -0.069000
     40 C40          6.7390    -3.5980    -0.7890 ca         1 23E      -0.129000
     41 C41          7.2010    -4.0390     0.4550 ca         1 23E      -0.079000
     42 C42          6.6560    -3.4960     1.6260 ca         1 23E      -0.150000
     43 C43          5.6510    -2.5120     1.5720 ca         1 23E      -0.016000
     44 C44          2.8300    -1.6780     2.2320 c3         1 23E      -0.008400
     45 N45          5.1970    -2.0270     2.8280 ns         1 23E      -0.152000
     46 C46          3.9720    -1.5260     3.2250 c          1 23E       0.554000
     47 O47          3.8140    -1.0240     4.3310 o          1 23E      -0.515000
     48 HN1         -1.2430     3.3260    -0.6490 hn         1 23E       0.318500
     49 HN4         -3.0940     1.4730    -0.3280 hn         1 23E       0.141000
     50 H7          -3.1590    -0.6740    -1.0690 ha         1 23E       0.111500
     51 H8          -4.4370    -2.7430    -1.4980 ha         1 23E       0.114500
     52 H10         -7.9000    -0.9860     0.4060 ha         1 23E       0.114500
     53 H11         -6.6440     1.0630     0.8280 ha         1 23E       0.111500
     54 H12         -6.4170    -4.0420    -1.3730 ha         1 23E       0.188000
     55 H13         -8.9320    -2.8980    -0.0220 ha         1 23E       0.144000
     56 H16         -3.2310     4.5310    -1.3140 hc         1 23E       0.067450
     57 H16A        -4.2500     5.2450    -0.0750 hc         1 23E       0.067450
     58 H17         -3.5320     4.8960     2.4430 hc         1 23E       0.067450
     59 H17A        -2.1910     3.8320     2.8190 hc         1 23E       0.067450
     60 H18         -1.3320     5.8670    -0.6370 hc         1 23E       0.039700
     61 H18A        -2.5720     6.9130     0.0360 hc         1 23E       0.039700
     62 H19         -1.6520     6.4200     2.1820 hc         1 23E       0.039700
     63 H19A        -0.6210     5.1770     1.4890 hc         1 23E       0.039700
     64 H23          0.3250     2.8850    -1.3780 ha         1 23E       0.109000
     65 H24          2.4900     2.0800    -2.2090 ha         1 23E       0.115000
     66 H25          0.5750     0.1130     1.9650 ha         1 23E       0.147000
     67 H31          5.9880    -0.2090    -1.7270 hc         1 23E       0.048700
     68 H33          4.3000    -0.9770    -3.4300 hc         1 23E       0.043200
     69 H33A         3.6430     0.6450    -3.5320 hc         1 23E       0.043200
     70 H34          6.5030    -0.2030    -4.2830 hc         1 23E       0.036450
     71 H34A         5.2310     0.2870    -5.3960 hc         1 23E       0.036450
     72 H35          6.8620     2.1620    -4.9720 hc         1 23E       0.036200
     73 H35A         5.2300     2.5980    -4.4750 hc         1 23E       0.036200
     74 H36          7.5080     1.6610    -2.6220 hc         1 23E       0.036450
     75 H36A         6.8490     3.2900    -2.7170 hc         1 23E       0.036450
     76 H37          4.6650     2.5360    -1.8450 hc         1 23E       0.043200
     77 H37A         5.9310     2.0240    -0.7400 hc         1 23E       0.043200
     78 H39          5.3890    -2.3160    -1.8400 ha         1 23E       0.127000
     79 H40          7.1390    -4.0330    -1.7030 ha         1 23E       0.119000
     80 H41          7.9690    -4.8080     0.5130 ha         1 23E       0.117000
     81 H42          7.0150    -3.8530     2.5890 ha         1 23E       0.119000
     82 H44          1.8990    -1.3950     2.7300 h1         1 23E       0.093200
     83 H44A         2.7680    -2.7300     1.9340 h1         1 23E       0.093200
     84 HN45         5.9070    -2.0090     3.5480 hn         1 23E       0.156000
@<TRIPOS>BOND
     1     1     2 1   
     2     1    21 1   
     3     1    48 1   
     4     2     3 1   
     5     2    16 1   
     6     2    17 1   
     7     3     4 1   
     8     3     6 2   
     9     4     5 1   
    10     4    49 1   
    11     5     7 ar  
    12     5    11 ar  
    13     7     8 ar  
    14     7    50 1   
    15     8     9 ar  
    16     8    51 1   
    17     9    10 ar  
    18     9    12 1   
    19    10    11 ar  
    20    10    52 1   
    21    11    53 1   
    22    12    13 2   
    23    12    54 1   
    24    13    14 1   
    25    13    55 1   
    26    14    15 1   
    27    14    20 1   
    28    16    18 1   
    29    16    56 1   
    30    16    57 1   
    31    17    19 1   
    32    17    58 1   
    33    17    59 1   
    34    18    19 1   
    35    18    60 1   
    36    18    61 1   
    37    19    62 1   
    38    19    63 1   
    39    21    22 1   
    40    21    38 2   
    41    22    23 ar  
    42    22    25 ar  
    43    23    24 ar  
    44    23    64 1   
    45    24    28 ar  
    46    24    65 1   
    47    25    27 ar  
    48    25    66 1   
    49    26    27 1   
    50    26    30 1   
    51    26    44 1   
    52    27    28 ar  
    53    28    29 1   
    54    29    30 2   
    55    29    31 1   
    56    30    32 1   
    57    31    33 1   
    58    31    37 1   
    59    31    67 1   
    60    32    39 ar  
    61    32    43 ar  
    62    33    34 1   
    63    33    68 1   
    64    33    69 1   
    65    34    35 1   
    66    34    70 1   
    67    34    71 1   
    68    35    36 1   
    69    35    72 1   
    70    35    73 1   
    71    36    37 1   
    72    36    74 1   
    73    36    75 1   
    74    37    76 1   
    75    37    77 1   
    76    39    40 ar  
    77    39    78 1   
    78    40    41 ar  
    79    40    79 1   
    80    41    42 ar  
    81    41    80 1   
    82    42    43 ar  
    83    42    81 1   
    84    43    45 1   
    85    44    46 1   
    86    44    82 1   
    87    44    83 1   
    88    45    46 1   
    89    45    84 1   
    90    46    47 2   
@<TRIPOS>SUBSTRUCTURE
     1 23E         1 TEMP              0 ****  ****    0 ROOT
