@<TRIPOS>MOLECULE
23F
   20    20     1     0     0
SMALL
bcc


@<TRIPOS>ATOM
      1 N           26.2420    17.4950     5.9410 nv         1 23F      -0.828600
      2 CA          26.9400    16.5320     5.2600 ce         1 23F       0.066800
      3 C           27.9550    17.0980     4.2480 c          1 23F       0.915800
      4 OXT         28.4980    16.2960     3.4710 o          1 23F      -0.815800
      5 CB          26.8080    15.1940     5.4010 cf         1 23F      -0.297200
      6 CG          25.9180    14.4410     6.2740 ca         1 23F       0.039200
      7 CD1         24.7190    14.9350     6.8120 ca         1 23F      -0.165500
      8 CD2         26.2490    13.1090     6.5730 ca         1 23F      -0.165500
      9 CE1         23.9140    14.1440     7.6210 ca         1 23F      -0.128000
     10 CE2         25.4480    12.3220     7.3830 ca         1 23F      -0.128000
     11 CZ          24.2730    12.8370     7.9200 ca         1 23F      -0.185000
     12 O           28.1350    18.3300     4.3150 o          1 23F      -0.815800
     13 H           25.9190    17.2750     6.8690 hn         1 23F       0.391300
     14 H2          26.6770    18.4030     5.8680 hn         1 23F       0.391300
     15 HB          27.4790    14.5950     4.8000 ha         1 23F       0.151000
     16 HD1         24.3800    15.9330     6.5710 ha         1 23F       0.128000
     17 HD2         27.1600    12.6910     6.1590 ha         1 23F       0.128000
     18 HE1         22.9920    14.5550     8.0130 ha         1 23F       0.105500
     19 HE2         25.7400    11.3010     7.5940 ha         1 23F       0.105500
     20 HZ          23.6440    12.2250     8.5530 ha         1 23F       0.106000
@<TRIPOS>BOND
     1     1     2 1   
     2     1    13 1   
     3     1    14 1   
     4     2     3 1   
     5     2     5 2   
     6     3     4 1   
     7     3    12 1   
     8     5     6 1   
     9     5    15 1   
    10     6     7 ar  
    11     6     8 ar  
    12     7     9 ar  
    13     7    16 1   
    14     8    10 ar  
    15     8    17 1   
    16     9    11 ar  
    17     9    18 1   
    18    10    11 ar  
    19    10    19 1   
    20    11    20 1   
@<TRIPOS>SUBSTRUCTURE
     1 23F         1 TEMP              0 ****  ****    0 ROOT
