@<TRIPOS>MOLECULE
23H
   71    74     1     0     0
SMALL
No Charge or Current Charge


@<TRIPOS>ATOM
      1 O1         -13.1730    16.0580   -22.8940 o          1 23H      -0.583100
      2 C1         -13.8640    15.1430   -23.3350 c          1 23H       0.582100
      3 N1         -15.2840    15.1980   -23.2580 n          1 23H      -0.224400
      4 C2         -15.9000    16.5220   -22.9210 c3         1 23H       0.114000
      5 C3         -15.8000    17.5520   -24.0820 c          1 23H       0.606100
      6 O2         -15.4510    17.2500   -25.2170 o          1 23H      -0.621100
      7 N2         -16.1580    18.8420   -23.7250 ns         1 23H      -0.488900
      8 C24        -16.1660    20.0340   -24.5830 c3         1 23H       0.137400
      9 C25        -17.2090    19.8600   -25.7170 c3         1 23H      -0.105600
     10 C27        -14.7550    20.3130   -25.1950 c3         1 23H      -0.082400
     11 C28        -13.5780    20.3680   -24.1900 c3         1 23H      -0.091100
     12 C26        -16.6080    21.2230   -23.6940 c3         1 23H      -0.105600
     13 C19        -17.2950    16.3740   -22.3330 cc         1 23H      -0.208300
     14 C20        -18.5080    16.7140   -22.8750 cd         1 23H      -0.133000
     15 C21        -19.5250    16.3900   -21.9600 cd         1 23H      -0.182000
     16 C22        -18.9590    15.8460   -20.8420 cc         1 23H      -0.178000
     17 N7         -17.5810    15.8340   -21.0700 na         1 23H       0.026000
     18 C23        -16.5850    15.3210   -20.1180 c3         1 23H       0.055900
     19 C11        -16.1480    14.0870   -23.5880 ca         1 23H      -0.085000
     20 C12        -17.0760    14.2120   -24.6420 ca         1 23H      -0.079500
     21 C13        -17.8180    13.1030   -25.0850 ca         1 23H      -0.144000
     22 C16        -15.8930    12.8010   -23.0720 ca         1 23H      -0.079500
     23 C15        -16.6330    11.6920   -23.5130 ca         1 23H      -0.144000
     24 C14        -17.6120    11.8310   -24.5130 ca         1 23H      -0.014000
     25 N6         -18.3210    10.6640   -24.9100 ns         1 23H      -0.149000
     26 C17        -19.3810    10.4650   -25.7860 c          1 23H       0.604100
     27 C18        -19.8130     9.0070   -25.9160 c3         1 23H      -0.177100
     28 O3         -19.9460    11.3550   -26.4110 o          1 23H      -0.581100
     29 C4         -13.2160    13.9350   -24.0360 c3         1 23H       0.017600
     30 N3         -11.9380    14.2540   -24.6880 na         1 23H       0.063600
     31 N4         -10.6940    13.8510   -24.2250 nc         1 23H      -0.161400
     32 N5          -9.7710    14.3140   -25.0700 nd         1 23H      -0.219400
     33 C10        -10.4450    15.0050   -26.0690 ca         1 23H       0.014400
     34 C5         -11.7830    14.9670   -25.8400 ca         1 23H      -0.061200
     35 C9          -9.9210    15.6730   -27.1850 ca         1 23H      -0.035000
     36 C8         -10.8260    16.3070   -28.0660 ca         1 23H      -0.140000
     37 C7         -12.2200    16.2600   -27.8180 ca         1 23H      -0.080000
     38 C6         -12.7180    15.5790   -26.6870 ca         1 23H      -0.103000
     39 H1         -15.2980    16.9660   -22.1180 h1         1 23H       0.077700
     40 H2         -16.4630    18.9590   -22.7670 hn         1 23H       0.313500
     41 H3         -18.1980    19.6250   -25.3050 hc         1 23H       0.045033
     42 H4         -17.2980    20.7810   -26.3070 hc         1 23H       0.045033
     43 H5         -16.9290    19.0540   -26.4040 hc         1 23H       0.045033
     44 H6         -14.7870    21.2630   -25.7430 hc         1 23H       0.050200
     45 H7         -14.5230    19.5500   -25.9470 hc         1 23H       0.050200
     46 H8         -12.6370    20.5440   -24.7250 hc         1 23H       0.039700
     47 H9         -13.7080    21.1810   -23.4670 hc         1 23H       0.039700
     48 H10        -13.4800    19.4250   -23.6410 hc         1 23H       0.039700
     49 H11        -17.6260    21.0700   -23.3140 hc         1 23H       0.045033
     50 H12        -15.9470    21.3450   -22.8270 hc         1 23H       0.045033
     51 H13        -16.6000    22.1620   -24.2610 hc         1 23H       0.045033
     52 H14        -18.6640    17.1590   -23.8540 ha         1 23H       0.143000
     53 H15        -20.5890    16.5450   -22.1160 ha         1 23H       0.137000
     54 H16        -19.4060    15.4740   -19.9280 h4         1 23H       0.145000
     55 H17        -17.0780    15.0300   -19.1830 h1         1 23H       0.052033
     56 H18        -16.0840    14.4450   -20.5490 h1         1 23H       0.052033
     57 H19        -15.8420    16.0990   -19.9070 h1         1 23H       0.052033
     58 H20        -17.2300    15.1740   -25.1230 ha         1 23H       0.133000
     59 H21        -18.5330    13.2550   -25.8860 ha         1 23H       0.134500
     60 H22        -15.1420    12.6610   -22.2970 ha         1 23H       0.133000
     61 H23        -16.4400    10.7150   -23.0740 ha         1 23H       0.134500
     62 H24        -17.9880     9.8160   -24.4710 hn         1 23H       0.149000
     63 H25        -20.6510     8.8750   -26.6090 hc         1 23H       0.065700
     64 H26        -18.9460     8.4030   -26.2090 hc         1 23H       0.065700
     65 H27        -20.0450     8.6140   -24.9200 hc         1 23H       0.065700
     66 H28        -13.9030    13.5580   -24.8010 h1         1 23H       0.092700
     67 H29        -13.0590    13.1490   -23.2900 h1         1 23H       0.092700
     68 H30         -8.8490    15.7010   -27.3650 ha         1 23H       0.131000
     69 H31        -10.4500    16.8330   -28.9390 ha         1 23H       0.115000
     70 H32        -12.9100    16.7510   -28.5010 ha         1 23H       0.117000
     71 H33        -13.7860    15.5350   -26.4860 ha         1 23H       0.144000
@<TRIPOS>BOND
     1     1     2 2   
     2     2     3 1   
     3     2    29 1   
     4     3     4 1   
     5     3    19 1   
     6     4     5 1   
     7     4    13 1   
     8     4    39 1   
     9     5     6 2   
    10     5     7 1   
    11     7     8 1   
    12     7    40 1   
    13     8     9 1   
    14     8    10 1   
    15     8    12 1   
    16     9    41 1   
    17     9    42 1   
    18     9    43 1   
    19    10    11 1   
    20    10    44 1   
    21    10    45 1   
    22    11    46 1   
    23    11    47 1   
    24    11    48 1   
    25    12    49 1   
    26    12    50 1   
    27    12    51 1   
    28    13    14 2   
    29    13    17 1   
    30    14    15 1   
    31    14    52 1   
    32    15    16 2   
    33    15    53 1   
    34    16    17 1   
    35    16    54 1   
    36    17    18 1   
    37    18    55 1   
    38    18    56 1   
    39    18    57 1   
    40    19    20 ar  
    41    19    22 ar  
    42    20    21 ar  
    43    20    58 1   
    44    21    24 ar  
    45    21    59 1   
    46    22    23 ar  
    47    22    60 1   
    48    23    24 ar  
    49    23    61 1   
    50    24    25 1   
    51    25    26 1   
    52    25    62 1   
    53    26    27 1   
    54    26    28 2   
    55    27    63 1   
    56    27    64 1   
    57    27    65 1   
    58    29    30 1   
    59    29    66 1   
    60    29    67 1   
    61    30    31 1   
    62    30    34 1   
    63    31    32 2   
    64    32    33 1   
    65    33    34 ar  
    66    33    35 ar  
    67    34    38 ar  
    68    35    36 ar  
    69    35    68 1   
    70    36    37 ar  
    71    36    69 1   
    72    37    38 ar  
    73    37    70 1   
    74    38    71 1   
@<TRIPOS>SUBSTRUCTURE
     1 23H         1 TEMP              0 ****  ****    0 ROOT
