@<TRIPOS>MOLECULE
23I
  104   105     1     0     0
SMALL
No Charge or Current Charge


@<TRIPOS>ATOM
      1 O4          -9.7670     4.6550   -10.1330 o          1 23I      -0.604100
      2 C11        -13.3140    11.5070   -13.6120 ca         1 23I      -0.101000
      3 C12        -12.0560    12.1250   -13.7170 ca         1 23I      -0.109500
      4 C13        -11.5070    12.7980   -12.6130 ca         1 23I      -0.100000
      5 C14        -12.2180    12.8530   -11.4030 ca         1 23I      -0.109500
      6 C15        -13.4750    12.2340   -11.2950 ca         1 23I      -0.101000
      7 C16        -14.0340    11.5570   -12.3980 ca         1 23I      -0.111300
      8 C20        -13.7680     2.9370    -9.6460 c3         1 23I      -0.380100
      9 C21        -15.9510     8.4160   -11.9500 c          1 23I       0.613700
     10 C22        -13.1230     5.1320   -14.6460 c          1 23I       0.613700
     11 C24        -16.0280     5.9300   -11.5440 ca         1 23I      -0.003000
     12 C27        -14.1600     5.4240   -13.5920 ca         1 23I      -0.156600
     13 C30         -9.6860     7.5210   -12.9040 c          1 23I       0.603100
     14 C31        -11.9270     6.1290   -16.6400 c3         1 23I       0.117700
     15 C32        -11.2410     7.5360   -16.5550 c3         1 23I       0.153300
     16 C35        -11.7080     3.2870   -18.1040 c3         1 23I      -0.090100
     17 C17        -15.3810    10.8510   -12.2600 c3         1 23I       0.166000
     18 C18        -16.4540    11.4410   -13.1950 c3         1 23I      -0.099100
     19 N21        -15.1980     9.4260   -12.5030 ns         1 23I      -0.504900
     20 O21        -16.9010     8.6500   -11.2160 o          1 23I      -0.589100
     21 C23        -15.5230     7.0100   -12.2990 ca         1 23I      -0.148600
     22 C25        -15.5980     4.6130   -11.7830 ca         1 23I       0.212000
     23 C26        -14.6600     4.3710   -12.8000 ca         1 23I      -0.068000
     24 C28        -14.5980     6.7430   -13.3370 ca         1 23I      -0.064000
     25 N22        -16.0950     3.5490   -11.0070 nh         1 23I      -0.740300
     26 C29        -16.7050     2.3730   -11.6560 c3         1 23I       0.183100
     27 S2         -15.4880     3.3340    -9.4020 s6         1 23I       1.196100
     28 O23        -16.1620     2.1630    -8.8320 o          1 23I      -0.527500
     29 O24        -15.5760     4.6340    -8.7330 o          1 23I      -0.527500
     30 O22        -12.3730     4.1700   -14.5630 o          1 23I      -0.615100
     31 N3         -13.0280     6.0470   -15.6710 ns         1 23I      -0.485900
     32 C36        -14.1760     3.9160   -17.8090 c3         1 23I      -0.090100
     33 C37        -10.8130     7.9780   -15.1270 c3         1 23I      -0.106400
     34 C38         -9.8720     7.0130   -14.3490 c3         1 23I      -0.137700
     35 C39         -8.5070     6.7930   -15.0460 c3         1 23I      -0.080100
     36 O31        -12.1290     8.5450   -17.0620 oh         1 23I      -0.669000
     37 O32         -9.1130     8.5690   -12.6410 o          1 23I      -0.619100
     38 N4         -10.2240     6.7140   -11.9260 ns         1 23I      -0.487900
     39 C41        -10.2600     7.0330   -10.4780 c3         1 23I       0.028700
     40 C42        -11.6170     7.6890   -10.0550 c3         1 23I      -0.062700
     41 C43        -11.9660     8.9510   -10.8800 c3         1 23I      -0.096100
     42 C44        -12.7950     6.6860   -10.0590 c3         1 23I      -0.096100
     43 C45         -9.9150     5.7660    -9.6380 c          1 23I       0.588100
     44 N5          -9.7940     5.9780    -8.2800 ns         1 23I      -0.504900
     45 C51         -9.4980     4.9380    -7.2950 c3         1 23I       0.112700
     46 C53        -10.1630     5.2800    -5.9490 c3         1 23I      -0.108100
     47 C52         -7.9770     4.7320    -7.1620 c3         1 23I      -0.108100
     48 H11        -13.7240    10.9860   -14.4740 ha         1 23I       0.114500
     49 H12        -11.5060    12.0800   -14.6540 ha         1 23I       0.117000
     50 H13        -10.5330    13.2740   -12.6950 ha         1 23I       0.117000
     51 H14        -11.7920    13.3710   -10.5460 ha         1 23I       0.117000
     52 H15        -14.0110    12.2760   -10.3490 ha         1 23I       0.114500
     53 H201       -13.7250     2.0090   -10.2230 h1         1 23I       0.105367
     54 H202       -13.3090     3.7650   -10.1940 h1         1 23I       0.105367
     55 H203       -13.3160     2.8140    -8.6580 h1         1 23I       0.105367
     56 H24        -16.7460     6.1090   -10.7480 ha         1 23I       0.162000
     57 H31        -11.1600     5.3960   -16.3600 h1         1 23I       0.086700
     58 H32        -10.3400     7.5010   -17.1840 h1         1 23I       0.042700
     59 H331       -13.1980     6.4600   -18.3800 hc         1 23I       0.051200
     60 H332       -11.5490     6.0340   -18.7660 hc         1 23I       0.051200
     61 H34        -12.9540     4.2980   -19.5010 hc         1 23I       0.042700
     62 H351       -11.5430     3.1910   -17.0250 hc         1 23I       0.035033
     63 H352       -11.9900     2.3000   -18.4910 hc         1 23I       0.035033
     64 H353       -10.7600     3.5760   -18.5740 hc         1 23I       0.035033
     65 H17        -15.7320    10.9780   -11.2270 h1         1 23I       0.070700
     66 H181       -16.1780    11.3060   -14.2480 hc         1 23I       0.046033
     67 H182       -17.4210    10.9530   -13.0290 hc         1 23I       0.046033
     68 H183       -16.5760    12.5140   -13.0060 hc         1 23I       0.046033
     69 HN21       -14.4040     9.1480   -13.0610 hn         1 23I       0.318500
     70 H26        -14.3190     3.3540   -12.9740 ha         1 23I       0.135000
     71 H28        -14.1950     7.5600   -13.9280 ha         1 23I       0.125000
     72 H291       -15.9970     1.5340   -11.6930 h1         1 23I       0.056700
     73 H292       -17.0090     2.6130   -12.6830 h1         1 23I       0.056700
     74 H293       -17.6040     2.0540   -11.1110 h1         1 23I       0.056700
     75 HN3        -13.7120     6.7920   -15.6850 hn         1 23I       0.327500
     76 H361       -14.1040     3.7320   -16.7330 hc         1 23I       0.035033
     77 H362       -14.5360     2.9920   -18.2770 hc         1 23I       0.035033
     78 H363       -14.9290     4.6950   -17.9810 hc         1 23I       0.035033
     79 H371       -10.3220     8.9570   -15.1990 hc         1 23I       0.052200
     80 H372       -11.7140     8.1430   -14.5220 hc         1 23I       0.052200
     81 H38        -10.3650     6.0370   -14.2850 hc         1 23I       0.074700
     82 H391        -7.8700     6.1340   -14.4440 hc         1 23I       0.043367
     83 H392        -8.6360     6.3260   -16.0290 hc         1 23I       0.043367
     84 H393        -7.9790     7.7450   -15.1840 hc         1 23I       0.043367
     85 HO31       -11.6090     9.3730   -17.1490 ho         1 23I       0.448000
     86 HN4        -10.6290     5.8350   -12.2300 hn         1 23I       0.347500
     87 H41         -9.4600     7.7540   -10.2650 h1         1 23I       0.088700
     88 H42        -11.5010     8.0290    -9.0180 hc         1 23I       0.049700
     89 H431       -11.1390     9.6710   -10.8630 hc         1 23I       0.040367
     90 H432       -12.1830     8.6980   -11.9250 hc         1 23I       0.040367
     91 H433       -12.8510     9.4470   -10.4640 hc         1 23I       0.040367
     92 H441       -12.6360     5.8890    -9.3230 hc         1 23I       0.040367
     93 H442       -13.7350     7.1880    -9.8010 hc         1 23I       0.040367
     94 H443       -12.9120     6.2240   -11.0460 hc         1 23I       0.040367
     95 HN5         -9.9280     6.9260    -7.9500 hn         1 23I       0.311500
     96 H51         -9.9380     3.9940    -7.6480 h1         1 23I       0.074700
     97 H531        -9.9840     4.4830    -5.2180 hc         1 23I       0.042200
     98 H532        -9.7640     6.2170    -5.5420 hc         1 23I       0.042200
     99 H533       -11.2470     5.3910    -6.0730 hc         1 23I       0.042200
    100 H521        -7.5390     4.4510    -8.1270 hc         1 23I       0.042200
    101 H522        -7.7570     3.9330    -6.4440 hc         1 23I       0.042200
    102 H523        -7.4880     5.6510    -6.8150 hc         1 23I       0.042200
    103 C33        -12.3800     5.7880   -18.0930 c3         1 23I      -0.079400
    104 C34        -12.8110     4.3250   -18.4130 c3         1 23I      -0.055700
@<TRIPOS>BOND
     1     1    43 2   
     2     2     3 ar  
     3     2     7 ar  
     4     2    48 1   
     5     3     4 ar  
     6     3    49 1   
     7     4     5 ar  
     8     4    50 1   
     9     5     6 ar  
    10     5    51 1   
    11     6     7 ar  
    12     6    52 1   
    13     7    17 1   
    14     8    27 1   
    15     8    53 1   
    16     8    54 1   
    17     8    55 1   
    18     9    19 1   
    19     9    20 2   
    20     9    21 1   
    21    10    12 1   
    22    10    30 2   
    23    10    31 1   
    24    11    21 ar  
    25    11    22 ar  
    26    11    56 1   
    27    12    23 ar  
    28    12    24 ar  
    29    13    34 1   
    30    13    37 2   
    31    13    38 1   
    32    14    15 1   
    33    14    31 1   
    34    14    57 1   
    35    14   103 1   
    36    15    33 1   
    37    15    36 1   
    38    15    58 1   
    39    16    62 1   
    40    16    63 1   
    41    16    64 1   
    42    16   104 1   
    43    17    18 1   
    44    17    19 1   
    45    17    65 1   
    46    18    66 1   
    47    18    67 1   
    48    18    68 1   
    49    19    69 1   
    50    21    24 ar  
    51    22    23 ar  
    52    22    25 1   
    53    23    70 1   
    54    24    71 1   
    55    25    26 1   
    56    25    27 1   
    57    26    72 1   
    58    26    73 1   
    59    26    74 1   
    60    27    28 2   
    61    27    29 2   
    62    31    75 1   
    63    32    76 1   
    64    32    77 1   
    65    32    78 1   
    66    32   104 1   
    67    33    34 1   
    68    33    79 1   
    69    33    80 1   
    70    34    35 1   
    71    34    81 1   
    72    35    82 1   
    73    35    83 1   
    74    35    84 1   
    75    36    85 1   
    76    38    39 1   
    77    38    86 1   
    78    39    40 1   
    79    39    43 1   
    80    39    87 1   
    81    40    41 1   
    82    40    42 1   
    83    40    88 1   
    84    41    89 1   
    85    41    90 1   
    86    41    91 1   
    87    42    92 1   
    88    42    93 1   
    89    42    94 1   
    90    43    44 1   
    91    44    45 1   
    92    44    95 1   
    93    45    46 1   
    94    45    47 1   
    95    45    96 1   
    96    46    97 1   
    97    46    98 1   
    98    46    99 1   
    99    47   100 1   
   100    47   101 1   
   101    47   102 1   
   102    59   103 1   
   103    60   103 1   
   104    61   104 1   
   105   103   104 1   
@<TRIPOS>SUBSTRUCTURE
     1 23I         1 TEMP              0 ****  ****    0 ROOT
