@<TRIPOS>MOLECULE
23J
   17    17     1     0     0
SMALL
No Charge or Current Charge


@<TRIPOS>ATOM
      1 C01        -15.3730    -1.8500    49.3990 ca         1 23J      -0.148000
      2 C02        -15.3820    -2.5230    50.6280 ca         1 23J      -0.099000
      3 C03        -14.1950    -3.0810    51.1260 ca         1 23J      -0.159000
      4 C04        -12.9880    -2.9720    50.4100 ca         1 23J      -0.053000
      5 C05        -12.9760    -2.2830    49.1680 ca         1 23J      -0.122600
      6 C06        -14.1780    -1.7320    48.6720 ca         1 23J      -0.037000
      7 C07        -11.7130    -2.1150    48.3480 c          1 23J       0.445700
      8 O08        -10.6640    -1.7240    48.8730 o          1 23J      -0.556100
      9 C09        -11.8040    -2.4000    46.7570 c          1 23J       0.659000
     10 O10        -11.1360    -1.7050    45.9940 o          1 23J      -0.700500
     11 O11        -12.5340    -3.3080    46.3650 o          1 23J      -0.700500
     12 S12        -11.5280    -3.7520    51.0870 sh         1 23J      -0.095800
     13 H1         -16.2920    -1.4180    49.0090 ha         1 23J       0.103000
     14 H2         -16.3070    -2.6160    51.1930 ha         1 23J       0.092000
     15 H3         -14.2140    -3.6100    52.0760 ha         1 23J       0.094000
     16 H4         -14.1870    -1.2000    47.7220 ha         1 23J       0.148000
     17 H6         -12.1180    -4.1960    52.2190 hs         1 23J       0.129800
@<TRIPOS>BOND
     1     1     2 ar  
     2     1     6 ar  
     3     1    13 1   
     4     2     3 ar  
     5     2    14 1   
     6     3     4 ar  
     7     3    15 1   
     8     4     5 ar  
     9     4    12 1   
    10     5     6 ar  
    11     5     7 1   
    12     6    16 1   
    13     7     8 2   
    14     7     9 1   
    15     9    10 1   
    16     9    11 1   
    17    12    17 1   
@<TRIPOS>SUBSTRUCTURE
     1 23J         1 TEMP              0 ****  ****    0 ROOT
