@<TRIPOS>MOLECULE
23J
   17    17     1     0     0
SMALL
abcg2


@<TRIPOS>ATOM
      1 C01        -15.3480    -1.9660    49.3080 ca         1 23J      -0.148000
      2 C02        -15.3310    -2.4230    50.6250 ca         1 23J      -0.099000
      3 C03        -14.1630    -2.9160    51.1840 ca         1 23J      -0.159000
      4 C04        -12.9760    -2.9650    50.4460 ca         1 23J      -0.053000
      5 C05        -12.9860    -2.5050    49.1110 ca         1 23J      -0.122600
      6 C06        -14.1820    -2.0130    48.5680 ca         1 23J      -0.037000
      7 C07        -11.7730    -2.5310    48.2700 c          1 23J       0.445700
      8 O08        -10.6910    -2.9180    48.7030 o          1 23J      -0.556100
      9 C09        -11.8780    -2.0630    46.8120 c          1 23J       0.659000
     10 O10        -11.6850    -0.8420    46.6230 o          1 23J      -0.700500
     11 O11        -12.1200    -2.9610    45.9770 o          1 23J      -0.700500
     12 S12        -11.5050    -3.6020    51.1980 sh         1 23J      -0.095800
     13 H1         -16.2590    -1.5800    48.8720 ha         1 23J       0.103000
     14 H2         -16.2330    -2.3970    51.2230 ha         1 23J       0.092000
     15 H3         -14.1700    -3.2670    52.2080 ha         1 23J       0.094000
     16 H4         -14.1830    -1.6590    47.5460 ha         1 23J       0.148000
     17 H6         -12.1080    -3.8770    52.3720 hs         1 23J       0.129800
@<TRIPOS>BOND
     1     1     2 ar  
     2     1     6 ar  
     3     1    13 1   
     4     2     3 ar  
     5     2    14 1   
     6     3     4 ar  
     7     3    15 1   
     8     4     5 ar  
     9     4    12 1   
    10     5     6 ar  
    11     5     7 1   
    12     6    16 1   
    13     7     8 2   
    14     7     9 1   
    15     9    10 1   
    16     9    11 1   
    17    12    17 1   
@<TRIPOS>SUBSTRUCTURE
     1 23J         1 TEMP              0 ****  ****    0 ROOT
