@<TRIPOS>MOLECULE
23K
   74    76     1     0     0
SMALL
No Charge or Current Charge


@<TRIPOS>ATOM
      1 C1           4.8550     3.9150     0.2150 ca         1 23K      -0.173000
      2 C2           5.4030     3.5720    -1.0220 ca         1 23K       0.225000
      3 C3           5.1700     2.3060    -1.5720 ca         1 23K      -0.182000
      4 C4           4.3830     1.3500    -0.8950 ca         1 23K       0.058700
      5 C5           3.8160     1.7030     0.3640 ca         1 23K      -0.280500
      6 C6           4.0640     2.9860     0.9050 ca         1 23K       0.009000
      7 F7           6.1630     4.4660    -1.6920 f          1 23K      -0.172000
      8 C8           4.1930    -0.0020    -1.5950 c3         1 23K      -0.055100
      9 S9           2.7710     0.6190     1.3680 sy         1 23K       1.183600
     10 N10          2.0690    -0.4750     0.2580 n3         1 23K      -0.792500
     11 O11          3.6040    -0.1690     2.2830 o          1 23K      -0.543500
     12 O12          1.6870     1.4470     1.9050 o          1 23K      -0.543500
     13 C13          0.6910    -0.9240     0.6200 c3         1 23K       0.203800
     14 C14          2.9460    -1.6180    -0.0840 c3         1 23K       0.229800
     15 C15          4.3380    -1.2410    -0.6620 c3         1 23K      -0.082700
     16 C16          5.0550    -2.4650    -1.3410 c3         1 23K      -0.050700
     17 C17         -0.4150     0.0550     0.1250 c3         1 23K       0.143300
     18 C18         -1.8590    -0.5390     0.0950 c3         1 23K       0.092700
     19 O19         -0.0170     0.5410    -1.1700 oh         1 23K      -0.654000
     20 N20         -2.8350     0.5230    -0.1880 ns         1 23K      -0.512900
     21 C21         -2.0670    -1.7290    -0.8890 c3         1 23K      -0.061100
     22 C22         -3.5140    -2.2130    -0.9390 ca         1 23K      -0.082300
     23 C23         -4.3700    -1.7980    -1.9790 ca         1 23K      -0.101000
     24 C24         -5.7100    -2.2220    -2.0070 ca         1 23K      -0.106000
     25 C25         -6.2030    -3.0650    -0.9970 ca         1 23K      -0.107000
     26 C26         -5.3540    -3.4850     0.0400 ca         1 23K      -0.106000
     27 C27         -4.0140    -3.0600     0.0700 ca         1 23K      -0.101000
     28 C28         -3.9900     0.7320     0.5150 c          1 23K       0.657100
     29 N29         -4.7830     1.6790    -0.0850 ns         1 23K      -0.520900
     30 O30         -4.2670     0.1410     1.5450 o          1 23K      -0.636100
     31 C31         -6.1300     2.0930     0.3240 c3         1 23K       0.153400
     32 C32         -6.6070     3.1530    -0.6950 c3         1 23K      -0.104433
     33 C33         -7.0990     0.8830     0.2850 c3         1 23K      -0.104433
     34 C34          6.5290    -2.1620    -1.7300 c3         1 23K      -0.092100
     35 C35          5.0260    -3.7420    -0.4600 c3         1 23K      -0.092100
     36 C36         -6.1030     2.7250     1.7380 c3         1 23K      -0.104433
     37 H1           5.0400     4.8990     0.6370 ha         1 23K       0.139000
     38 H2           5.6100     2.0730    -2.5380 ha         1 23K       0.130000
     39 H3           3.6420     3.2700     1.8680 ha         1 23K       0.140000
     40 H4           3.2160    -0.0230    -2.0950 hc         1 23K       0.072200
     41 H5           4.9020    -0.0760    -2.4220 hc         1 23K       0.072200
     42 H6           0.4960    -1.8970     0.1550 h1         1 23K       0.062700
     43 H7           0.5910    -1.0810     1.7030 h1         1 23K       0.062700
     44 H8           3.0830    -2.2630     0.7950 h1         1 23K       0.051700
     45 H9           2.4390    -2.2280    -0.8450 h1         1 23K       0.051700
     46 H10          4.9840    -0.9510     0.1750 hc         1 23K       0.079700
     47 H11          4.5130    -2.7010    -2.2660 hc         1 23K       0.044700
     48 H12         -0.4430     0.8950     0.8310 h1         1 23K       0.103700
     49 H13         -2.0590    -0.9220     1.1060 h1         1 23K       0.104700
     50 H14          0.9610     0.4070    -1.1610 ho         1 23K       0.433000
     51 H15         -2.6890     1.0820    -1.0170 hn         1 23K       0.300500
     52 H16         -1.7430    -1.4300    -1.8930 hc         1 23K       0.044700
     53 H17         -1.4230    -2.5660    -0.5990 hc         1 23K       0.044700
     54 H18         -4.0000    -1.1390    -2.7610 ha         1 23K       0.107500
     55 H19         -6.3670    -1.8940    -2.8100 ha         1 23K       0.112500
     56 H20         -7.2400    -3.3920    -1.0180 ha         1 23K       0.113000
     57 H21         -5.7340    -4.1360     0.8240 ha         1 23K       0.112500
     58 H22         -3.3660    -3.3830     0.8820 ha         1 23K       0.107500
     59 H23         -4.4150     2.0900    -0.9310 hn         1 23K       0.297500
     60 H24         -6.6330     2.7390    -1.7100 hc         1 23K       0.044033
     61 H25         -7.6160     3.5070    -0.4490 hc         1 23K       0.044033
     62 H26         -5.9370     4.0220    -0.7000 hc         1 23K       0.044033
     63 H27         -6.8320     0.1260     1.0310 hc         1 23K       0.044033
     64 H28         -8.1270     1.2030     0.4940 hc         1 23K       0.044033
     65 H29         -7.0870     0.4050    -0.7020 hc         1 23K       0.044033
     66 H30          7.1050    -1.8420    -0.8530 hc         1 23K       0.037533
     67 H31          7.0110    -3.0570    -2.1410 hc         1 23K       0.037533
     68 H32          6.6080    -1.3830    -2.4950 hc         1 23K       0.037533
     69 H33          4.0040    -4.1090    -0.3150 hc         1 23K       0.037533
     70 H34          5.5910    -4.5540    -0.9340 hc         1 23K       0.037533
     71 H35          5.4700    -3.5490     0.5240 hc         1 23K       0.037533
     72 H36         -5.3810     3.5500     1.7830 hc         1 23K       0.044033
     73 H37         -7.0900     3.1250     2.0030 hc         1 23K       0.044033
     74 H38         -5.8290     1.9920     2.5050 hc         1 23K       0.044033
@<TRIPOS>BOND
     1     1     2 ar  
     2     1     6 ar  
     3     1    37 1   
     4     2     3 ar  
     5     2     7 1   
     6     3     4 ar  
     7     3    38 1   
     8     4     5 ar  
     9     4     8 1   
    10     5     6 ar  
    11     5     9 1   
    12     6    39 1   
    13     8    15 1   
    14     8    40 1   
    15     8    41 1   
    16     9    10 1   
    17     9    11 2   
    18     9    12 2   
    19    10    13 1   
    20    10    14 1   
    21    13    17 1   
    22    13    42 1   
    23    13    43 1   
    24    14    15 1   
    25    14    44 1   
    26    14    45 1   
    27    15    16 1   
    28    15    46 1   
    29    16    34 1   
    30    16    35 1   
    31    16    47 1   
    32    17    18 1   
    33    17    19 1   
    34    17    48 1   
    35    18    20 1   
    36    18    21 1   
    37    18    49 1   
    38    19    50 1   
    39    20    28 1   
    40    20    51 1   
    41    21    22 1   
    42    21    52 1   
    43    21    53 1   
    44    22    23 ar  
    45    22    27 ar  
    46    23    24 ar  
    47    23    54 1   
    48    24    25 ar  
    49    24    55 1   
    50    25    26 ar  
    51    25    56 1   
    52    26    27 ar  
    53    26    57 1   
    54    27    58 1   
    55    28    29 1   
    56    28    30 2   
    57    29    31 1   
    58    29    59 1   
    59    31    32 1   
    60    31    33 1   
    61    31    36 1   
    62    32    60 1   
    63    32    61 1   
    64    32    62 1   
    65    33    63 1   
    66    33    64 1   
    67    33    65 1   
    68    34    66 1   
    69    34    67 1   
    70    34    68 1   
    71    35    69 1   
    72    35    70 1   
    73    35    71 1   
    74    36    72 1   
    75    36    73 1   
    76    36    74 1   
@<TRIPOS>SUBSTRUCTURE
     1 23K         1 TEMP              0 ****  ****    0 ROOT
