@<TRIPOS>MOLECULE
23K
   74    76     1     0     0
SMALL
bcc


@<TRIPOS>ATOM
      1 C1           3.8250     3.5300     1.5040 ca         1 23K      -0.191000
      2 C2           4.2410     3.6400     0.1920 ca         1 23K       0.189900
      3 C3           4.2100     2.5760    -0.6840 ca         1 23K      -0.200000
      4 C4           3.7470     1.3280    -0.2710 ca         1 23K       0.058700
      5 C5           3.3240     1.2140     1.0570 ca         1 23K      -0.280500
      6 C6           3.3630     2.2990     1.9290 ca         1 23K      -0.009000
      7 F7           4.6880     4.8220    -0.2470 f          1 23K      -0.136900
      8 C8           3.7100     0.2210    -1.2930 c3         1 23K      -0.055100
      9 S9           2.7600    -0.3070     1.7830 sy         1 23K       1.325200
     10 N10          2.1480    -1.1890     0.5530 n3         1 23K      -0.792500
     11 O11          3.9260    -0.9790     2.3420 o          1 23K      -0.614300
     12 O12          1.6660     0.0300     2.6860 o          1 23K      -0.614300
     13 C13          0.7260    -1.5200     0.5440 c3         1 23K       0.203800
     14 C14          3.0790    -1.9700    -0.2600 c3         1 23K       0.229800
     15 C15          4.2380    -1.1450    -0.8250 c3         1 23K      -0.082700
     16 C16          4.9310    -1.9010    -1.9750 c3         1 23K      -0.050700
     17 C17         -0.1300    -0.4550    -0.1330 c3         1 23K       0.120100
     18 C18         -1.6290    -0.7170     0.0730 c3         1 23K       0.092700
     19 O19          0.2000    -0.2900    -1.4940 oh         1 23K      -0.591800
     20 N20         -2.3870     0.3580    -0.5160 ns         1 23K      -0.579900
     21 C21         -2.0810    -2.0830    -0.4760 c3         1 23K      -0.061100
     22 C22         -3.5580    -2.3060    -0.3130 ca         1 23K      -0.082300
     23 C23         -4.4460    -2.0200    -1.3470 ca         1 23K      -0.119000
     24 C24         -5.8120    -2.2080    -1.1860 ca         1 23K      -0.124000
     25 C25         -6.3120    -2.6820     0.0180 ca         1 23K      -0.125000
     26 C26         -5.4370    -2.9670     1.0580 ca         1 23K      -0.124000
     27 C27         -4.0730    -2.7790     0.8910 ca         1 23K      -0.119000
     28 C28         -3.4540     0.9380     0.1180 c          1 23K       0.791100
     29 N29         -4.2460     1.6760    -0.7010 ns         1 23K      -0.587900
     30 O30         -3.6310     0.8340     1.3260 o          1 23K      -0.636100
     31 C31         -5.5150     2.3010    -0.3220 c3         1 23K       0.153400
     32 C32         -6.0840     2.8980    -1.6090 c3         1 23K      -0.104433
     33 C33         -6.5070     1.2750     0.2290 c3         1 23K      -0.104433
     34 C34          6.2400    -1.2230    -2.3750 c3         1 23K      -0.092100
     35 C35          5.2210    -3.3600    -1.6240 c3         1 23K      -0.092100
     36 C36         -5.2930     3.4270     0.6900 c3         1 23K      -0.104433
     37 H1           3.8560     4.3750     2.1760 ha         1 23K       0.157000
     38 H2           4.5460     2.7140    -1.7040 ha         1 23K       0.148000
     39 H3           3.0280     2.1950     2.9520 ha         1 23K       0.158000
     40 H4           2.6800     0.1080    -1.6450 hc         1 23K       0.072200
     41 H5           4.2790     0.5650    -2.1550 hc         1 23K       0.072200
     42 H6           0.6390    -2.4760     0.0240 h1         1 23K       0.062700
     43 H7           0.3570    -1.7020     1.5540 h1         1 23K       0.062700
     44 H8           3.4420    -2.8370     0.2950 h1         1 23K       0.051700
     45 H9           2.4910    -2.3430    -1.1000 h1         1 23K       0.051700
     46 H10          4.9910    -0.9960    -0.0440 hc         1 23K       0.079700
     47 H11          4.2520    -1.8860    -2.8370 hc         1 23K       0.044700
     48 H12          0.0850     0.5090     0.3360 h1         1 23K       0.103700
     49 H13         -1.8160    -0.6960     1.1480 h1         1 23K       0.104700
     50 H14          0.1550    -1.1400    -1.9440 ho         1 23K       0.394000
     51 H15         -2.3260     0.4360    -1.5200 hn         1 23K       0.300500
     52 H16         -1.8210    -2.1630    -1.5370 hc         1 23K       0.044700
     53 H17         -1.5360    -2.8780     0.0370 hc         1 23K       0.044700
     54 H18         -4.0660    -1.6510    -2.2920 ha         1 23K       0.125500
     55 H19         -6.4860    -1.9840    -2.0030 ha         1 23K       0.130500
     56 H20         -7.3770    -2.8310     0.1460 ha         1 23K       0.131000
     57 H21         -5.8170    -3.3410     2.0000 ha         1 23K       0.130500
     58 H22         -3.3970    -3.0050     1.7090 ha         1 23K       0.125500
     59 H23         -4.0890     1.5840    -1.6910 hn         1 23K       0.297500
     60 H24         -6.2450     2.1270    -2.3650 hc         1 23K       0.044033
     61 H25         -7.0430     3.3750    -1.4120 hc         1 23K       0.044033
     62 H26         -5.4140     3.6510    -2.0290 hc         1 23K       0.044033
     63 H27         -6.1620     0.8430     1.1670 hc         1 23K       0.044033
     64 H28         -7.4750     1.7470     0.4070 hc         1 23K       0.044033
     65 H29         -6.6480     0.4570    -0.4780 hc         1 23K       0.044033
     66 H30          6.9520    -1.2480    -1.5470 hc         1 23K       0.037533
     67 H31          6.6960    -1.7420    -3.2200 hc         1 23K       0.037533
     68 H32          6.1140    -0.1810    -2.6700 hc         1 23K       0.037533
     69 H33          4.3160    -3.9450    -1.4560 hc         1 23K       0.037533
     70 H34          5.7690    -3.8420    -2.4340 hc         1 23K       0.037533
     71 H35          5.8380    -3.4290    -0.7240 hc         1 23K       0.037533
     72 H36         -4.6070     4.1770     0.2920 hc         1 23K       0.044033
     73 H37         -6.2410     3.9210     0.9090 hc         1 23K       0.044033
     74 H38         -4.8860     3.0530     1.6270 hc         1 23K       0.044033
@<TRIPOS>BOND
     1     1     2 ar  
     2     1     6 ar  
     3     1    37 1   
     4     2     3 ar  
     5     2     7 1   
     6     3     4 ar  
     7     3    38 1   
     8     4     5 ar  
     9     4     8 1   
    10     5     6 ar  
    11     5     9 1   
    12     6    39 1   
    13     8    15 1   
    14     8    40 1   
    15     8    41 1   
    16     9    10 1   
    17     9    11 2   
    18     9    12 2   
    19    10    13 1   
    20    10    14 1   
    21    13    17 1   
    22    13    42 1   
    23    13    43 1   
    24    14    15 1   
    25    14    44 1   
    26    14    45 1   
    27    15    16 1   
    28    15    46 1   
    29    16    34 1   
    30    16    35 1   
    31    16    47 1   
    32    17    18 1   
    33    17    19 1   
    34    17    48 1   
    35    18    20 1   
    36    18    21 1   
    37    18    49 1   
    38    19    50 1   
    39    20    28 1   
    40    20    51 1   
    41    21    22 1   
    42    21    52 1   
    43    21    53 1   
    44    22    23 ar  
    45    22    27 ar  
    46    23    24 ar  
    47    23    54 1   
    48    24    25 ar  
    49    24    55 1   
    50    25    26 ar  
    51    25    56 1   
    52    26    27 ar  
    53    26    57 1   
    54    27    58 1   
    55    28    29 1   
    56    28    30 2   
    57    29    31 1   
    58    29    59 1   
    59    31    32 1   
    60    31    33 1   
    61    31    36 1   
    62    32    60 1   
    63    32    61 1   
    64    32    62 1   
    65    33    63 1   
    66    33    64 1   
    67    33    65 1   
    68    34    66 1   
    69    34    67 1   
    70    34    68 1   
    71    35    69 1   
    72    35    70 1   
    73    35    71 1   
    74    36    72 1   
    75    36    73 1   
    76    36    74 1   
@<TRIPOS>SUBSTRUCTURE
     1 23K         1 TEMP              0 ****  ****    0 ROOT
