@<TRIPOS>MOLECULE
23L
   72    75     1     0     0
SMALL
bcc


@<TRIPOS>ATOM
      1 C1           3.7760     3.6470     1.4950 ca         1 23L      -0.191000
      2 C2           4.2180     3.8190     0.1980 ca         1 23L       0.190900
      3 C3           4.2780     2.7790    -0.7050 ca         1 23L      -0.200000
      4 C4           3.8870     1.4930    -0.3350 ca         1 23L       0.059700
      5 C5           3.4410     1.3160     0.9780 ca         1 23L      -0.279500
      6 C6           3.3860     2.3780     1.8770 ca         1 23L      -0.010000
      7 F7           4.6010     5.0370    -0.2000 f          1 23L      -0.135900
      8 C8           3.9460     0.4120    -1.3810 c3         1 23L      -0.053100
      9 S9           2.9570    -0.2570     1.6500 sy         1 23L       1.322200
     10 N10          2.4350    -1.1390     0.3760 n3         1 23L      -0.790500
     11 O11          4.1450    -0.8710     2.2290 o          1 23L      -0.614800
     12 O12          1.8170    -0.0180     2.5260 o          1 23L      -0.614800
     13 C13          1.0430    -1.5810     0.3470 c3         1 23L       0.203800
     14 C14          3.4360    -1.8410    -0.4260 c3         1 23L       0.228800
     15 C15          4.5530    -0.9250    -0.9260 c3         1 23L      -0.084700
     16 C16          5.3500    -1.5950    -2.0620 c3         1 23L      -0.050700
     17 C17          0.0990    -0.5210    -0.2120 c3         1 23L       0.120100
     18 C18         -1.3670    -0.9030     0.0250 c3         1 23L       0.093700
     19 O19          0.3680    -0.2200    -1.5620 oh         1 23L      -0.588800
     20 N20         -2.2230     0.1730    -0.4170 ns         1 23L      -0.551900
     21 C21         -1.7780    -2.2290    -0.6380 c3         1 23L      -0.057100
     22 C22         -3.2290    -2.5430    -0.4020 ca         1 23L      -0.092300
     23 C23         -4.1930    -2.2350    -1.3570 ca         1 23L      -0.118000
     24 C24         -5.5390    -2.4860    -1.1180 ca         1 23L      -0.124000
     25 C25         -5.9380    -3.0470     0.0860 ca         1 23L      -0.124000
     26 C26         -4.9840    -3.3590     1.0470 ca         1 23L      -0.124000
     27 C27         -3.6420    -3.1080     0.8030 ca         1 23L      -0.118000
     28 C28         -3.2630     0.6200     0.3130 c          1 23L       0.758100
     29 O29         -4.0560     1.4080    -0.4230 os         1 23L      -0.430900
     30 O30         -3.4620     0.3720     1.4840 o          1 23L      -0.586000
     31 C31         -5.1760     1.9890     0.2440 c5         1 23L       0.137100
     32 C32         -6.2710     0.9700     0.6180 c5         1 23L       0.100400
     33 O33         -7.4010     1.2760    -0.1760 os         1 23L      -0.401600
     34 C34         -7.3490     2.6650    -0.4330 c5         1 23L       0.124400
     35 C35         -5.8810     2.9380    -0.7240 c5         1 23L      -0.119400
     36 C36          6.6350    -0.8220    -2.3550 c3         1 23L      -0.092100
     37 C37          5.7070    -3.0480    -1.7490 c3         1 23L      -0.092100
     38 H1           3.7350     4.4760     2.1880 ha         1 23L       0.157000
     39 H2           4.6290     2.9660    -1.7130 ha         1 23L       0.149000
     40 H3           3.0330     2.2270     2.8890 ha         1 23L       0.157000
     41 H4           2.9330     0.2390    -1.7580 hc         1 23L       0.071700
     42 H5           4.5110     0.8060    -2.2250 hc         1 23L       0.071700
     43 H6           1.0230    -2.4780    -0.2750 h1         1 23L       0.061700
     44 H7           0.7040    -1.8990     1.3340 h1         1 23L       0.061700
     45 H8           3.8360    -2.7000     0.1170 h1         1 23L       0.052700
     46 H9           2.8980    -2.2230    -1.2960 h1         1 23L       0.052700
     47 H10          5.2650    -0.7460    -0.1120 hc         1 23L       0.079700
     48 H11          4.7210    -1.5830    -2.9610 hc         1 23L       0.044700
     49 H12          0.2650     0.4130     0.3310 h1         1 23L       0.104700
     50 H13         -1.4990    -1.0010     1.1040 h1         1 23L       0.100700
     51 H14          0.3660    -1.0310    -2.0820 ho         1 23L       0.396000
     52 H15         -2.1940     0.4110    -1.3980 hn         1 23L       0.328500
     53 H16         -1.5880    -2.1800    -1.7140 hc         1 23L       0.047200
     54 H17         -1.1590    -3.0380    -0.2430 hc         1 23L       0.047200
     55 H18         -3.8890    -1.7970    -2.3000 ha         1 23L       0.127500
     56 H19         -6.2740    -2.2410    -1.8740 ha         1 23L       0.134000
     57 H20         -6.9860    -3.2430     0.2760 ha         1 23L       0.134000
     58 H21         -5.2870    -3.8000     1.9880 ha         1 23L       0.134000
     59 H22         -2.9040    -3.3490     1.5590 ha         1 23L       0.127500
     60 H23         -4.8270     2.5190     1.1330 h1         1 23L       0.070700
     61 H24         -5.9790    -0.0640     0.4270 h1         1 23L       0.066200
     62 H25         -6.5090     1.0670     1.6840 h1         1 23L       0.066200
     63 H26         -8.0080     2.8950    -1.2700 h1         1 23L       0.049700
     64 H27         -7.6890     3.2420     0.4380 h1         1 23L       0.049700
     65 H28         -5.6030     3.9800    -0.5760 hc         1 23L       0.067700
     66 H29         -5.6460     2.6620    -1.7540 hc         1 23L       0.067700
     67 H30          7.3010    -0.8520    -1.4900 hc         1 23L       0.037700
     68 H31          7.1670    -1.2640    -3.1990 hc         1 23L       0.037700
     69 H32          6.4600     0.2260    -2.6000 hc         1 23L       0.037700
     70 H33          6.2690    -3.1180    -0.8140 hc         1 23L       0.037700
     71 H34          4.8310    -3.6900    -1.6630 hc         1 23L       0.037700
     72 H35          6.3320    -3.4620    -2.5400 hc         1 23L       0.037700
@<TRIPOS>BOND
     1     1     2 ar  
     2     1     6 ar  
     3     1    38 1   
     4     2     3 ar  
     5     2     7 1   
     6     3     4 ar  
     7     3    39 1   
     8     4     5 ar  
     9     4     8 1   
    10     5     6 ar  
    11     5     9 1   
    12     6    40 1   
    13     8    15 1   
    14     8    41 1   
    15     8    42 1   
    16     9    10 1   
    17     9    11 2   
    18     9    12 2   
    19    10    13 1   
    20    10    14 1   
    21    13    17 1   
    22    13    43 1   
    23    13    44 1   
    24    14    15 1   
    25    14    45 1   
    26    14    46 1   
    27    15    16 1   
    28    15    47 1   
    29    16    36 1   
    30    16    37 1   
    31    16    48 1   
    32    17    18 1   
    33    17    19 1   
    34    17    49 1   
    35    18    20 1   
    36    18    21 1   
    37    18    50 1   
    38    19    51 1   
    39    20    28 1   
    40    20    52 1   
    41    21    22 1   
    42    21    53 1   
    43    21    54 1   
    44    22    23 ar  
    45    22    27 ar  
    46    23    24 ar  
    47    23    55 1   
    48    24    25 ar  
    49    24    56 1   
    50    25    26 ar  
    51    25    57 1   
    52    26    27 ar  
    53    26    58 1   
    54    27    59 1   
    55    28    29 1   
    56    28    30 2   
    57    29    31 1   
    58    31    32 1   
    59    31    35 1   
    60    31    60 1   
    61    32    33 1   
    62    32    61 1   
    63    32    62 1   
    64    33    34 1   
    65    34    35 1   
    66    34    63 1   
    67    34    64 1   
    68    35    65 1   
    69    35    66 1   
    70    36    67 1   
    71    36    68 1   
    72    36    69 1   
    73    37    70 1   
    74    37    71 1   
    75    37    72 1   
@<TRIPOS>SUBSTRUCTURE
     1 23L         1 TEMP              0 ****  ****    0 ROOT
