@<TRIPOS>MOLECULE
23L
   72    75     1     0     0
SMALL
No Charge or Current Charge


@<TRIPOS>ATOM
      1 C1           4.9150     4.0470     0.5540 ca         1 23L      -0.173000
      2 C2           5.4210     3.8620    -0.7340 ca         1 23L       0.226000
      3 C3           5.2210     2.6510    -1.4060 ca         1 23L      -0.182000
      4 C4           4.5110     1.5910    -0.8030 ca         1 23L       0.059700
      5 C5           3.9870     1.7820     0.5100 ca         1 23L      -0.279500
      6 C6           4.2000     3.0120     1.1730 ca         1 23L       0.008000
      7 F7           6.1070     4.8580    -1.3360 f          1 23L      -0.171000
      8 C8           4.3500     0.3110    -1.6330 c3         1 23L      -0.053100
      9 S9           3.0390     0.5490     1.4350 sy         1 23L       1.180600
     10 N10          2.3380    -0.4580     0.2450 n3         1 23L      -0.790500
     11 O11          3.9480    -0.2880     2.2260 o          1 23L      -0.544000
     12 O12          1.9440     1.2600     2.1000 o          1 23L      -0.544000
     13 C13          1.0000    -1.0100     0.6120 c3         1 23L       0.203800
     14 C14          3.2490    -1.5140    -0.2530 c3         1 23L       0.228800
     15 C15          4.5950    -1.0100    -0.8440 c3         1 23L      -0.084700
     16 C16          5.3340    -2.1180    -1.6780 c3         1 23L      -0.050700
     17 C17         -0.1700    -0.0420     0.2670 c3         1 23L       0.143300
     18 C18         -1.5870    -0.6970     0.2360 c3         1 23L       0.093700
     19 O19          0.1440     0.5910    -0.9870 oh         1 23L      -0.651000
     20 N20         -2.6160     0.3410     0.0860 ns         1 23L      -0.484900
     21 C21         -1.7830    -1.8040    -0.8420 c3         1 23L      -0.057100
     22 C22         -3.2130    -2.3360    -0.8990 ca         1 23L      -0.092300
     23 C23         -4.0800    -1.9410    -1.9370 ca         1 23L      -0.100000
     24 C24         -5.4020    -2.4170    -1.9770 ca         1 23L      -0.106000
     25 C25         -5.8660    -3.2900    -0.9780 ca         1 23L      -0.106000
     26 C26         -5.0060    -3.6880     0.0590 ca         1 23L      -0.106000
     27 C27         -3.6830    -3.2130     0.0970 ca         1 23L      -0.100000
     28 C28         -3.7550     0.4310     0.8320 c          1 23L       0.642100
     29 O29         -4.5330     1.4300     0.3160 os         1 23L      -0.454100
     30 O30         -4.0220    -0.2720     1.7950 o          1 23L      -0.537000
     31 C31         -5.8420     1.5570     0.9340 c5         1 23L       0.160300
     32 C32         -6.7570     0.3580     0.4910 c5         1 23L       0.123600
     33 O33         -7.8250     0.9490    -0.2850 os         1 23L      -0.448000
     34 C34         -7.9920     2.2930     0.1930 c5         1 23L       0.147600
     35 C35         -6.5350     2.7900     0.2880 c5         1 23L      -0.119400
     36 C36          6.7740    -1.7030    -2.0930 c3         1 23L      -0.092100
     37 C37          5.4050    -3.4800    -0.9370 c3         1 23L      -0.092100
     38 H1           5.0750     4.9890     1.0700 ha         1 23L       0.139000
     39 H2           5.6260     2.5410    -2.4080 ha         1 23L       0.131000
     40 H3           3.8110     3.1730     2.1780 ha         1 23L       0.139000
     41 H4           3.3540     0.2930    -2.0920 hc         1 23L       0.071700
     42 H5           5.0230     0.3600    -2.4920 hc         1 23L       0.071700
     43 H6           0.8290    -1.9390     0.0550 h1         1 23L       0.061700
     44 H7           0.9560    -1.2830     1.6760 h1         1 23L       0.061700
     45 H8           3.4560    -2.2390     0.5460 h1         1 23L       0.052700
     46 H9           2.7360    -2.0660    -1.0530 h1         1 23L       0.052700
     47 H10          5.2640    -0.7750    -0.0080 hc         1 23L       0.079700
     48 H11          4.7620    -2.2830    -2.6000 hc         1 23L       0.044700
     49 H12         -0.2010     0.7210     1.0560 h1         1 23L       0.104700
     50 H13         -1.7330    -1.1730     1.2160 h1         1 23L       0.100700
     51 H14          1.1270     0.5070    -1.0320 ho         1 23L       0.435000
     52 H15         -2.5280     1.0010    -0.6750 hn         1 23L       0.328500
     53 H16         -1.4950    -1.4080    -1.8230 hc         1 23L       0.047200
     54 H17         -1.1030    -2.6390    -0.6420 hc         1 23L       0.047200
     55 H18         -3.7330    -1.2590    -2.7100 ha         1 23L       0.109500
     56 H19         -6.0680    -2.1060    -2.7790 ha         1 23L       0.116000
     57 H20         -6.8900    -3.6570    -1.0070 ha         1 23L       0.116000
     58 H21         -5.3630    -4.3630     0.8330 ha         1 23L       0.116000
     59 H22         -3.0250    -3.5230     0.9070 ha         1 23L       0.109500
     60 H23         -5.7590     1.6450     2.0260 h1         1 23L       0.070700
     61 H24         -6.2300    -0.3850    -0.1210 h1         1 23L       0.066200
     62 H25         -7.1860    -0.1500     1.3650 h1         1 23L       0.066200
     63 H26         -8.6030     2.8750    -0.5100 h1         1 23L       0.049700
     64 H27         -8.4890     2.2720     1.1740 h1         1 23L       0.049700
     65 H28         -6.4400     3.6930     0.9010 hc         1 23L       0.067700
     66 H29         -6.1350     3.0160    -0.7070 hc         1 23L       0.067700
     67 H30          7.3740    -1.4470    -1.2110 hc         1 23L       0.037700
     68 H31          7.2770    -2.5250    -2.6160 hc         1 23L       0.037700
     69 H32          6.7820    -0.8450    -2.7730 hc         1 23L       0.037700
     70 H33          5.8840    -3.3680     0.0430 hc         1 23L       0.037700
     71 H34          4.4080    -3.9110    -0.7900 hc         1 23L       0.037700
     72 H35          5.9840    -4.2090    -1.5170 hc         1 23L       0.037700
@<TRIPOS>BOND
     1     1     2 ar  
     2     1     6 ar  
     3     1    38 1   
     4     2     3 ar  
     5     2     7 1   
     6     3     4 ar  
     7     3    39 1   
     8     4     5 ar  
     9     4     8 1   
    10     5     6 ar  
    11     5     9 1   
    12     6    40 1   
    13     8    15 1   
    14     8    41 1   
    15     8    42 1   
    16     9    10 1   
    17     9    11 2   
    18     9    12 2   
    19    10    13 1   
    20    10    14 1   
    21    13    17 1   
    22    13    43 1   
    23    13    44 1   
    24    14    15 1   
    25    14    45 1   
    26    14    46 1   
    27    15    16 1   
    28    15    47 1   
    29    16    36 1   
    30    16    37 1   
    31    16    48 1   
    32    17    18 1   
    33    17    19 1   
    34    17    49 1   
    35    18    20 1   
    36    18    21 1   
    37    18    50 1   
    38    19    51 1   
    39    20    28 1   
    40    20    52 1   
    41    21    22 1   
    42    21    53 1   
    43    21    54 1   
    44    22    23 ar  
    45    22    27 ar  
    46    23    24 ar  
    47    23    55 1   
    48    24    25 ar  
    49    24    56 1   
    50    25    26 ar  
    51    25    57 1   
    52    26    27 ar  
    53    26    58 1   
    54    27    59 1   
    55    28    29 1   
    56    28    30 2   
    57    29    31 1   
    58    31    32 1   
    59    31    35 1   
    60    31    60 1   
    61    32    33 1   
    62    32    61 1   
    63    32    62 1   
    64    33    34 1   
    65    34    35 1   
    66    34    63 1   
    67    34    64 1   
    68    35    65 1   
    69    35    66 1   
    70    36    67 1   
    71    36    68 1   
    72    36    69 1   
    73    37    70 1   
    74    37    71 1   
    75    37    72 1   
@<TRIPOS>SUBSTRUCTURE
     1 23L         1 TEMP              0 ****  ****    0 ROOT
