@<TRIPOS>MOLECULE
23M
   34    36     1     0     0
SMALL
bcc


@<TRIPOS>ATOM
      1 C1          -1.1950    -0.4990     0.0070 ca         1 23M      -0.113800
      2 C2          -0.9070     0.8590     0.2710 ca         1 23M      -0.031200
      3 N3           0.4470     0.9930     0.2970 na         1 23M      -0.167400
      4 C4           1.0400    -0.2280     0.0780 cc         1 23M      -0.011300
      5 C5           0.0590    -1.1680    -0.1100 cd         1 23M      -0.160200
      6 C6           2.4910    -0.3800     0.0460 ca         1 23M      -0.030800
      7 C7           3.0690    -1.6250     0.2990 ca         1 23M      -0.112000
      8 C8           4.4470    -1.7700     0.2610 ca         1 23M      -0.122000
      9 C9           5.2620    -0.6830    -0.0180 ca         1 23M      -0.125000
     10 C10          4.7090     0.5710    -0.2730 ca         1 23M      -0.071300
     11 C11          3.3250     0.7040    -0.2400 ca         1 23M      -0.128000
     12 C12          5.5890     1.7440    -0.5930 c3         1 23M      -0.047800
     13 C13         -1.9130     1.8030     0.4560 ca         1 23M      -0.158000
     14 C14         -3.2200     1.3710     0.3540 ca         1 23M      -0.091000
     15 C15         -3.5390     0.0250     0.0760 ca         1 23M      -0.183900
     16 C16         -2.5260    -0.9070    -0.0880 ca         1 23M      -0.021000
     17 C17         -4.9550    -0.4190    -0.0340 ce         1 23M       0.665800
     18 N18         -5.2470    -1.6390     0.2140 n2         1 23M      -0.833100
     19 N19         -5.8520     0.5620    -0.3580 nv         1 23M      -0.965800
     20 HN3          0.9360     1.8370     0.5460 hn         1 23M       0.299700
     21 H5           0.2160    -2.2110    -0.3350 ha         1 23M       0.158000
     22 H7           2.4440    -2.4740     0.5420 ha         1 23M       0.139000
     23 H8           4.8880    -2.7370     0.4640 ha         1 23M       0.134000
     24 H9           6.3390    -0.8090    -0.0380 ha         1 23M       0.131000
     25 H11          2.8970     1.6750    -0.4630 ha         1 23M       0.123000
     26 H121         6.0790     1.6140    -1.5600 hc         1 23M       0.043367
     27 H122         5.0210     2.6720    -0.6330 hc         1 23M       0.043367
     28 H123         6.3760     1.8620     0.1520 hc         1 23M       0.043367
     29 H13         -1.6850     2.8380     0.6760 ha         1 23M       0.133000
     30 H14         -4.0110     2.0910     0.5160 ha         1 23M       0.133000
     31 H16         -2.7740    -1.9400    -0.2960 ha         1 23M       0.156000
     32 HN18        -6.2360    -1.8170     0.0590 hn         1 23M       0.367400
     33 H191        -5.5330     1.3350    -0.9190 hn         1 23M       0.402300
     34 H192        -6.7900     0.2690    -0.5820 hn         1 23M       0.402300
@<TRIPOS>BOND
     1     1     2 ar  
     2     1     5 1   
     3     1    16 ar  
     4     2     3 1   
     5     2    13 ar  
     6     3     4 1   
     7     3    20 1   
     8     4     5 2   
     9     4     6 1   
    10     5    21 1   
    11     6     7 ar  
    12     6    11 ar  
    13     7     8 ar  
    14     7    22 1   
    15     8     9 ar  
    16     8    23 1   
    17     9    10 ar  
    18     9    24 1   
    19    10    11 ar  
    20    10    12 1   
    21    11    25 1   
    22    12    26 1   
    23    12    27 1   
    24    12    28 1   
    25    13    14 ar  
    26    13    29 1   
    27    14    15 ar  
    28    14    30 1   
    29    15    16 ar  
    30    15    17 1   
    31    16    31 1   
    32    17    18 2   
    33    17    19 1   
    34    18    32 1   
    35    19    33 1   
    36    19    34 1   
@<TRIPOS>SUBSTRUCTURE
     1 23M         1 TEMP              0 ****  ****    0 ROOT
