@<TRIPOS>MOLECULE
23M
   34    36     1     0     0
SMALL
No Charge or Current Charge


@<TRIPOS>ATOM
      1 C1          -1.2160    -0.3730     0.0440 ca         1 23M      -0.113800
      2 C2          -0.9610     0.9670     0.1330 ca         1 23M      -0.031200
      3 N3           0.4090     1.1790     0.1390 na         1 23M      -0.217700
      4 C4           1.0750    -0.0590     0.0590 cc         1 23M      -0.011300
      5 C5           0.0730    -1.0180    -0.0060 cd         1 23M      -0.210200
      6 C6           2.5200    -0.3250     0.0090 ca         1 23M      -0.030800
      7 C7           3.0370    -1.6350     0.1170 ca         1 23M      -0.094000
      8 C8           4.4220    -1.8630     0.0670 ca         1 23M      -0.104000
      9 C9           5.3090    -0.7860    -0.0890 ca         1 23M      -0.107000
     10 C10          4.8140     0.5250    -0.1920 ca         1 23M      -0.071300
     11 C11          3.4250     0.7480    -0.1440 ca         1 23M      -0.110000
     12 C12          5.7710     1.6950    -0.3640 c3         1 23M      -0.047800
     13 C13         -2.0000     1.8990     0.2110 ca         1 23M      -0.140000
     14 C14         -3.3280     1.4170     0.1870 ca         1 23M      -0.073000
     15 C15         -3.6050     0.0210     0.0730 ca         1 23M      -0.183900
     16 C16         -2.5170    -0.8910     0.0180 ca         1 23M      -0.003000
     17 C17         -5.0080    -0.4990     0.0790 ce         1 23M       0.665800
     18 N18         -5.3010    -1.7110     0.3110 n2         1 23M      -0.833100
     19 N19         -5.9980     0.3400    -0.2910 nv         1 23M      -1.076200
     20 HN3          0.8580     2.0850     0.1950 hn         1 23M       0.350000
     21 H5           0.2250    -2.0890    -0.0990 ha         1 23M       0.208000
     22 H7           2.3760    -2.4870     0.2480 ha         1 23M       0.121000
     23 H8           4.8090    -2.8760     0.1510 ha         1 23M       0.116000
     24 H9           6.3810    -0.9730    -0.1280 ha         1 23M       0.113000
     25 H11          3.0510     1.7650    -0.2320 ha         1 23M       0.105000
     26 H121         5.9090     1.9330    -1.4250 hc         1 23M       0.043367
     27 H122         5.3930     2.5960     0.1350 hc         1 23M       0.043367
     28 H123         6.7570     1.4740     0.0610 hc         1 23M       0.043367
     29 H13         -1.7930     2.9630     0.2940 ha         1 23M       0.115000
     30 H14         -4.1380     2.1380     0.2700 ha         1 23M       0.115000
     31 H16         -2.6770    -1.9640    -0.0510 ha         1 23M       0.138000
     32 HN18        -6.3160    -1.7700     0.4450 hn         1 23M       0.367400
     33 H191        -5.6840     1.1860    -0.7520 hn         1 23M       0.457500
     34 H192        -6.8210    -0.0910    -0.6960 hn         1 23M       0.457500
@<TRIPOS>BOND
     1     1     2 ar  
     2     1     5 1   
     3     1    16 ar  
     4     2     3 1   
     5     2    13 ar  
     6     3     4 1   
     7     3    20 1   
     8     4     5 2   
     9     4     6 1   
    10     5    21 1   
    11     6     7 ar  
    12     6    11 ar  
    13     7     8 ar  
    14     7    22 1   
    15     8     9 ar  
    16     8    23 1   
    17     9    10 ar  
    18     9    24 1   
    19    10    11 ar  
    20    10    12 1   
    21    11    25 1   
    22    12    26 1   
    23    12    27 1   
    24    12    28 1   
    25    13    14 ar  
    26    13    29 1   
    27    14    15 ar  
    28    14    30 1   
    29    15    16 ar  
    30    15    17 1   
    31    16    31 1   
    32    17    18 2   
    33    17    19 1   
    34    18    32 1   
    35    19    33 1   
    36    19    34 1   
@<TRIPOS>SUBSTRUCTURE
     1 23M         1 TEMP              0 ****  ****    0 ROOT
