@<TRIPOS>MOLECULE
23N
   25    25     1     0     0
SMALL
No Charge or Current Charge


@<TRIPOS>ATOM
      1 CAH         -1.6970     1.5080     0.4820 ca         1 23N      -0.094500
      2 CAF         -3.0480     1.6840     0.8280 ca         1 23N      -0.121000
      3 CAE         -4.0360     0.8790     0.2360 ca         1 23N      -0.129000
      4 CAG         -3.6720    -0.1010    -0.7020 ca         1 23N      -0.121000
      5 CAI         -2.3210    -0.2770    -1.0480 ca         1 23N      -0.094500
      6 CAM         -1.3250     0.5270    -0.4580 ca         1 23N      -0.046300
      7 CAJ          0.1410     0.3410    -0.8330 c3         1 23N      -0.017100
      8 CAN          0.9450    -0.4260     0.2530 c3         1 23N      -0.213700
      9 CAL          0.3900    -1.8450     0.4680 c          1 23N       0.721000
     10 OAD          0.4480    -2.6370    -0.4610 o          1 23N      -0.712500
     11 OAA         -0.0380    -2.1320     1.5750 o          1 23N      -0.712500
     12 CAK          2.4680    -0.5030    -0.0660 c3         1 23N      -0.006400
     13 NAO          3.1630     0.8630    -0.0740 no         1 23N       0.571000
     14 OAC          3.4140     1.3870     1.0180 o          1 23N      -0.438500
     15 OAB          3.4930     1.3360    -1.1690 o          1 23N      -0.438500
     16 HAH         -0.9370     2.1350     0.9440 ha         1 23N       0.120500
     17 HAF         -3.3280     2.4430     1.5550 ha         1 23N       0.095500
     18 HAE         -5.0810     1.0150     0.5040 ha         1 23N       0.091000
     19 HAG         -4.4360    -0.7250    -1.1600 ha         1 23N       0.095500
     20 HAI         -2.0470    -1.0400    -1.7740 ha         1 23N       0.120500
     21 HAJ1         0.2290    -0.1840    -1.7920 hc         1 23N       0.038700
     22 HAJ2         0.5910     1.3290    -0.9910 hc         1 23N       0.038700
     23 HAN          0.8310     0.1160     1.2000 hc         1 23N       0.071700
     24 HAK1         2.9940    -1.0930     0.6930 h1         1 23N       0.092200
     25 HAK2         2.6450    -0.9500    -1.0520 h1         1 23N       0.092200
@<TRIPOS>BOND
     1     1     2 ar  
     2     1     6 ar  
     3     1    16 1   
     4     2     3 ar  
     5     2    17 1   
     6     3     4 ar  
     7     3    18 1   
     8     4     5 ar  
     9     4    19 1   
    10     5     6 ar  
    11     5    20 1   
    12     6     7 1   
    13     7     8 1   
    14     7    21 1   
    15     7    22 1   
    16     8     9 1   
    17     8    12 1   
    18     8    23 1   
    19     9    10 1   
    20     9    11 1   
    21    12    13 1   
    22    12    24 1   
    23    12    25 1   
    24    13    14 1   
    25    13    15 1   
@<TRIPOS>SUBSTRUCTURE
     1 23N         1 TEMP              0 ****  ****    0 ROOT
