@<TRIPOS>MOLECULE
23N
   25    25     1     0     0
SMALL
bcc


@<TRIPOS>ATOM
      1 CAH         -1.6980     1.6200     0.3900 ca         1 23N      -0.112500
      2 CAF         -3.0320     1.7740     0.7410 ca         1 23N      -0.139000
      3 CAE         -3.9820     0.8720     0.2780 ca         1 23N      -0.147000
      4 CAG         -3.5860    -0.1810    -0.5360 ca         1 23N      -0.139000
      5 CAI         -2.2500    -0.3300    -0.8850 ca         1 23N      -0.112500
      6 CAM         -1.2880     0.5690    -0.4280 ca         1 23N      -0.046300
      7 CAJ          0.1630     0.4030    -0.7840 c3         1 23N      -0.017100
      8 CAN          0.9220    -0.4380     0.2510 c3         1 23N      -0.213700
      9 CAL          0.3800    -1.8920     0.2850 c          1 23N       0.931600
     10 OAD          0.5060    -2.5380    -0.7740 o          1 23N      -0.817800
     11 OAA         -0.1180    -2.2870     1.3530 o          1 23N      -0.817800
     12 CAK          2.4040    -0.5190    -0.0860 c3         1 23N      -0.035700
     13 NAO          3.0800     0.8110    -0.0320 no         1 23N       0.220300
     14 OAC          2.9140     1.4900     0.9530 o          1 23N      -0.248500
     15 OAB          3.7730     1.1370    -0.9670 o          1 23N      -0.248500
     16 HAH         -0.9630     2.3310     0.7520 ha         1 23N       0.138500
     17 HAF         -3.3310     2.6020     1.3720 ha         1 23N       0.113500
     18 HAE         -5.0240     0.9920     0.5470 ha         1 23N       0.109000
     19 HAG         -4.3190    -0.8870    -0.9040 ha         1 23N       0.113500
     20 HAI         -1.9480    -1.1580    -1.5150 ha         1 23N       0.138500
     21 HAJ1         0.2570    -0.0710    -1.7630 hc         1 23N       0.038700
     22 HAJ2         0.6130     1.3960    -0.8710 hc         1 23N       0.038700
     23 HAN          0.8020     0.0070     1.2410 hc         1 23N       0.071700
     24 HAK1         2.9410    -1.1360     0.6380 h1         1 23N       0.092200
     25 HAK2         2.5710    -0.9150    -1.0830 h1         1 23N       0.092200
@<TRIPOS>BOND
     1     1     2 ar  
     2     1     6 ar  
     3     1    16 1   
     4     2     3 ar  
     5     2    17 1   
     6     3     4 ar  
     7     3    18 1   
     8     4     5 ar  
     9     4    19 1   
    10     5     6 ar  
    11     5    20 1   
    12     6     7 1   
    13     7     8 1   
    14     7    21 1   
    15     7    22 1   
    16     8     9 1   
    17     8    12 1   
    18     8    23 1   
    19     9    10 1   
    20     9    11 1   
    21    12    13 1   
    22    12    24 1   
    23    12    25 1   
    24    13    14 1   
    25    13    15 1   
@<TRIPOS>SUBSTRUCTURE
     1 23N         1 TEMP              0 ****  ****    0 ROOT
