@<TRIPOS>MOLECULE
23P
   22    21     1     0     0
SMALL
bcc


@<TRIPOS>ATOM
      1 N          -68.2410    67.4840   -14.0830 n8         1 23P      -0.893800
      2 CA         -67.5500    68.6140   -14.6770 c3         1 23P       0.005500
      3 CB         -66.5550    69.1540   -13.6430 c3         1 23P       0.120000
      4 NG         -65.9120    70.3640   -14.0930 ns         1 23P      -0.556900
      5 CD         -65.6080    71.4160   -13.3270 c          1 23P       0.660100
      6 CE         -64.9890    72.5840   -14.0730 c3         1 23P      -0.160400
      7 CZ         -63.8340    73.2270   -13.3190 c3         1 23P      -0.073100
      8 C          -66.8680    68.2170   -16.0120 c          1 23P       0.931600
      9 O          -66.0420    69.0400   -16.4770 o          1 23P      -0.833800
     10 OE         -65.8190    71.4660   -12.1180 o          1 23P      -0.669100
     11 O1         -67.2140    67.1480   -16.5410 o          1 23P      -0.833800
     12 H1         -69.0140    67.8070   -13.5180 hn         1 23P       0.333800
     13 H2         -68.6270    66.9140   -14.8230 hn         1 23P       0.333800
     14 H4         -68.2340    69.4430   -14.9290 h1         1 23P       0.005700
     15 H5         -67.0830    69.3590   -12.7110 h1         1 23P       0.036700
     16 H6         -65.8140    68.3760   -13.4250 h1         1 23P       0.036700
     17 H7         -65.6920    70.3480   -15.0840 hn         1 23P       0.366500
     18 H8         -64.6640    72.2760   -15.0690 hc         1 23P       0.051700
     19 H9         -65.7780    73.3260   -14.2290 hc         1 23P       0.051700
     20 H10        -63.4450    74.0780   -13.8780 hc         1 23P       0.029367
     21 H11        -64.1470    73.5880   -12.3410 hc         1 23P       0.029367
     22 H12        -63.0130    72.5250   -13.1730 hc         1 23P       0.029367
@<TRIPOS>BOND
     1     1     2 1   
     2     1    12 1   
     3     1    13 1   
     4     2     3 1   
     5     2     8 1   
     6     2    14 1   
     7     3     4 1   
     8     3    15 1   
     9     3    16 1   
    10     4     5 1   
    11     4    17 1   
    12     5     6 1   
    13     5    10 2   
    14     6     7 1   
    15     6    18 1   
    16     6    19 1   
    17     7    20 1   
    18     7    21 1   
    19     7    22 1   
    20     8     9 1   
    21     8    11 1   
@<TRIPOS>SUBSTRUCTURE
     1 23P         1 TEMP              0 ****  ****    0 ROOT
