@<TRIPOS>MOLECULE
23Q
   54    57     1     0     0
SMALL
abcg2


@<TRIPOS>ATOM
      1 N1           0.1280    -1.2920    -0.0740 n3         1 23Q      -0.725600
      2 C4          -2.0280    -0.1330     0.1290 c6         1 23Q      -0.019400
      3 C5           0.1310     1.1160     0.1520 c6         1 23Q      -0.071400
      4 C6          -1.2570    -1.2960    -0.4940 c6         1 23Q       0.179800
      5 C7           2.9110    -1.3230     0.1800 ca         1 23Q      -0.059300
      6 C8          -1.3440     1.1900    -0.2200 c6         1 23Q       0.171500
      7 C10         -3.4760    -0.1620    -0.2900 ca         1 23Q      -0.082300
      8 C13          5.0550    -0.1910     0.3110 ca         1 23Q       0.116100
      9 C15         -4.4790    -0.3980     0.6440 ca         1 23Q      -0.075000
     10 C22         -3.8480     0.0410    -1.6190 ca         1 23Q      -0.104000
     11 C26          7.0650    -1.3040     0.8760 c3         1 23Q       0.145900
     12 F21         -7.3300     0.6040     1.7690 f          1 23Q      -0.267000
     13 C18         -5.8220    -0.4430     0.2790 ca         1 23Q      -0.131300
     14 C25         -6.1690    -0.2390    -1.0520 ca         1 23Q      -0.086000
     15 C23         -5.1820    -0.0000    -1.9980 ca         1 23Q      -0.115000
     16 N17         -1.9770     2.2850     0.4970 n8         1 23Q      -0.995200
     17 C2           0.8110    -0.0830    -0.5080 c6         1 23Q       0.239800
     18 C3           2.2940    -0.1450    -0.2030 ca         1 23Q      -0.070300
     19 C9           3.0750     1.0090    -0.3540 ca         1 23Q      -0.167000
     20 C16          2.1270    -2.5990     0.2960 c6         1 23Q      -0.026100
     21 C14          0.8260    -2.4960    -0.4730 c6         1 23Q       0.175800
     22 C12          4.2880    -1.3320     0.4380 ca         1 23Q      -0.172000
     23 O20          6.3810    -0.1160     0.5350 os         1 23Q      -0.321100
     24 C11          4.4330     1.0060    -0.1000 ca         1 23Q       0.109100
     25 O19          5.2450     2.0750    -0.2160 os         1 23Q      -0.321100
     26 C27          4.6770     3.3020    -0.6210 c3         1 23Q       0.145900
     27 H4          -1.9790    -0.2470     1.2170 hc         1 23Q       0.084700
     28 H5           0.6140     2.0460    -0.1530 hc         1 23Q       0.058700
     29 H5A          0.2360     1.0340     1.2380 hc         1 23Q       0.058700
     30 H6          -1.3510    -1.2600    -1.5940 h1         1 23Q       0.033200
     31 H6A         -1.7120    -2.2350    -0.1730 h1         1 23Q       0.033200
     32 H8          -1.3970     1.3170    -1.3150 h1         1 23Q       0.008700
     33 H15         -4.2070    -0.5610     1.6820 ha         1 23Q       0.119000
     34 H22         -3.0910     0.2310    -2.3710 ha         1 23Q       0.111000
     35 H24         -6.4970    -1.1900     2.1760 h1         1 23Q       0.047700
     36 H24A        -7.7400    -1.1750     0.9100 h1         1 23Q       0.047700
     37 H26          8.1160    -1.0410     0.9700 h1         1 23Q       0.039033
     38 H26A         6.7210    -1.7190     1.8270 h1         1 23Q       0.039033
     39 H26B         6.9610    -2.0710     0.1030 h1         1 23Q       0.039033
     40 H25         -7.2100    -0.2740    -1.3530 ha         1 23Q       0.115000
     41 H23         -5.4520     0.1560    -3.0340 ha         1 23Q       0.115000
     42 HN17        -1.5480     3.1590     0.2170 hn         1 23Q       0.396500
     43 HN1A        -2.9480     2.3610     0.2180 hn         1 23Q       0.396500
     44 H2           0.7060     0.0350    -1.6050 h1         1 23Q       0.024700
     45 H9           2.6020     1.9230    -0.6870 ha         1 23Q       0.116000
     46 H16          2.7160    -3.4380    -0.0810 hc         1 23Q       0.054200
     47 H16A         1.9100    -2.8160     1.3460 hc         1 23Q       0.054200
     48 H14          0.1940    -3.3570    -0.2500 h1         1 23Q       0.032700
     49 H14A         1.0240    -2.5210    -1.5590 h1         1 23Q       0.032700
     50 H12          4.7440    -2.2680     0.7360 ha         1 23Q       0.117000
     51 H27          4.2300     3.2390    -1.6170 h1         1 23Q       0.038367
     52 H27A         3.9170     3.6550     0.0820 h1         1 23Q       0.038367
     53 H27B         5.4880     4.0260    -0.6480 h1         1 23Q       0.038367
     54 C24         -6.8800    -0.6410     1.3160 c3         1 23Q       0.233900
@<TRIPOS>BOND
     1     1     4 1   
     2     1    17 1   
     3     1    21 1   
     4     2     4 1   
     5     2     6 1   
     6     2     7 1   
     7     2    27 1   
     8     3     6 1   
     9     3    17 1   
    10     3    28 1   
    11     3    29 1   
    12     4    30 1   
    13     4    31 1   
    14     5    18 ar  
    15     5    20 1   
    16     5    22 ar  
    17     6    16 1   
    18     6    32 1   
    19     7     9 ar  
    20     7    10 ar  
    21     8    22 ar  
    22     8    23 1   
    23     8    24 ar  
    24     9    13 ar  
    25     9    33 1   
    26    10    15 ar  
    27    10    34 1   
    28    11    23 1   
    29    11    37 1   
    30    11    38 1   
    31    11    39 1   
    32    12    54 1   
    33    13    14 ar  
    34    13    54 1   
    35    14    15 ar  
    36    14    40 1   
    37    15    41 1   
    38    16    42 1   
    39    16    43 1   
    40    17    18 1   
    41    17    44 1   
    42    18    19 ar  
    43    19    24 ar  
    44    19    45 1   
    45    20    21 1   
    46    20    46 1   
    47    20    47 1   
    48    21    48 1   
    49    21    49 1   
    50    22    50 1   
    51    24    25 1   
    52    25    26 1   
    53    26    51 1   
    54    26    52 1   
    55    26    53 1   
    56    35    54 1   
    57    36    54 1   
@<TRIPOS>SUBSTRUCTURE
     1 23Q         1 TEMP              0 ****  ****    0 ROOT
