@<TRIPOS>MOLECULE
23Q
   54    57     1     0     0
SMALL
No Charge or Current Charge


@<TRIPOS>ATOM
      1 N1           0.1190    -1.3240    -0.0240 n3         1 23Q      -0.725600
      2 C4          -2.0900    -0.1450     0.1350 c6         1 23Q      -0.019400
      3 C5           0.1100     1.1550     0.1500 c6         1 23Q      -0.071400
      4 C6          -1.3020    -1.3370    -0.4640 c6         1 23Q       0.179800
      5 C7           3.0030    -1.3340     0.1310 ca         1 23Q      -0.059300
      6 C8          -1.3840     1.1840    -0.2480 c6         1 23Q       0.171500
      7 C10         -3.5700    -0.1800    -0.2880 ca         1 23Q      -0.082300
      8 C13          5.1640    -0.1950     0.2840 ca         1 23Q       0.116100
      9 C15         -4.5800    -0.3330     0.6850 ca         1 23Q      -0.075000
     10 C22         -3.9340    -0.0660    -1.6450 ca         1 23Q      -0.104000
     11 C26          7.2480    -1.3940     0.8770 c3         1 23Q       0.145900
     12 F21         -7.4260     0.6560     1.8660 f          1 23Q      -0.267000
     13 C18         -5.9380    -0.3720     0.3110 ca         1 23Q      -0.131300
     14 C25         -6.2870    -0.2540    -1.0470 ca         1 23Q      -0.086000
     15 C23         -5.2870    -0.1020    -2.0220 ca         1 23Q      -0.115000
     16 N17         -2.0650     2.3500     0.3570 n8         1 23Q      -0.995200
     17 C2           0.8310    -0.0830    -0.4640 c6         1 23Q       0.239800
     18 C3           2.3600    -0.1140    -0.1850 ca         1 23Q      -0.070300
     19 C9           3.1480     1.0550    -0.3070 ca         1 23Q      -0.167000
     20 C16          2.2060    -2.6350     0.2170 c6         1 23Q      -0.026100
     21 C14          0.8310    -2.5410    -0.4720 c6         1 23Q       0.175800
     22 C12          4.3880    -1.3700     0.3740 ca         1 23Q      -0.172000
     23 O20          6.5300    -0.2010     0.5180 os         1 23Q      -0.321100
     24 C11          4.5410     1.0230    -0.0660 ca         1 23Q       0.109100
     25 O19          5.3270     2.1610    -0.1690 os         1 23Q      -0.321100
     26 C27          4.7870     3.4500    -0.5120 c3         1 23Q       0.145900
     27 H4          -2.0350    -0.2450     1.2280 hc         1 23Q       0.084700
     28 H5           0.5730     2.0870    -0.1910 hc         1 23Q       0.058700
     29 H5A          0.2130     1.1320     1.2440 hc         1 23Q       0.058700
     30 H6          -1.3600    -1.3030    -1.5620 h1         1 23Q       0.033200
     31 H6A         -1.7890    -2.2700    -0.1430 h1         1 23Q       0.033200
     32 H8          -1.4530     1.3140    -1.3380 h1         1 23Q       0.008700
     33 H15         -4.3110    -0.4220     1.7350 ha         1 23Q       0.119000
     34 H22         -3.1720     0.0510    -2.4120 ha         1 23Q       0.111000
     35 H24         -6.6430    -1.1480     2.2020 h1         1 23Q       0.047700
     36 H24A        -7.8920    -1.0500     0.9420 h1         1 23Q       0.047700
     37 H26          8.3130    -1.1690     1.0170 h1         1 23Q       0.039033
     38 H26A         6.8630    -1.8130     1.8160 h1         1 23Q       0.039033
     39 H26B         7.1620    -2.1540     0.0890 h1         1 23Q       0.039033
     40 H25         -7.3320    -0.2790    -1.3490 ha         1 23Q       0.115000
     41 H23         -5.5610    -0.0120    -3.0710 ha         1 23Q       0.115000
     42 HN17        -1.7720     3.1980    -0.1410 hn         1 23Q       0.396500
     43 HN1A        -3.0660     2.2770     0.1400 hn         1 23Q       0.396500
     44 H2           0.7310     0.0010    -1.5570 h1         1 23Q       0.024700
     45 H9           2.6760     1.9840    -0.6020 ha         1 23Q       0.116000
     46 H16          2.7760    -3.4620    -0.2280 hc         1 23Q       0.054200
     47 H16A         2.0600    -2.8930     1.2750 hc         1 23Q       0.054200
     48 H14          0.2530    -3.4450    -0.2270 h1         1 23Q       0.032700
     49 H14A         0.9680    -2.5250    -1.5630 h1         1 23Q       0.032700
     50 H12          4.8450    -2.3220     0.6290 ha         1 23Q       0.117000
     51 H27          4.3210     3.4260    -1.5050 h1         1 23Q       0.038367
     52 H27A         4.0360     3.7660     0.2240 h1         1 23Q       0.038367
     53 H27B         5.5850     4.2030    -0.5290 h1         1 23Q       0.038367
     54 C24         -7.0210    -0.5390     1.3710 c3         1 23Q       0.233900
@<TRIPOS>BOND
     1     1     4 1   
     2     1    17 1   
     3     1    21 1   
     4     2     4 1   
     5     2     6 1   
     6     2     7 1   
     7     2    27 1   
     8     3     6 1   
     9     3    17 1   
    10     3    28 1   
    11     3    29 1   
    12     4    30 1   
    13     4    31 1   
    14     5    18 ar  
    15     5    20 1   
    16     5    22 ar  
    17     6    16 1   
    18     6    32 1   
    19     7     9 ar  
    20     7    10 ar  
    21     8    22 ar  
    22     8    23 1   
    23     8    24 ar  
    24     9    13 ar  
    25     9    33 1   
    26    10    15 ar  
    27    10    34 1   
    28    11    23 1   
    29    11    37 1   
    30    11    38 1   
    31    11    39 1   
    32    12    54 1   
    33    13    14 ar  
    34    13    54 1   
    35    14    15 ar  
    36    14    40 1   
    37    15    41 1   
    38    16    42 1   
    39    16    43 1   
    40    17    18 1   
    41    17    44 1   
    42    18    19 ar  
    43    19    24 ar  
    44    19    45 1   
    45    20    21 1   
    46    20    46 1   
    47    20    47 1   
    48    21    48 1   
    49    21    49 1   
    50    22    50 1   
    51    24    25 1   
    52    25    26 1   
    53    26    51 1   
    54    26    52 1   
    55    26    53 1   
    56    35    54 1   
    57    36    54 1   
@<TRIPOS>SUBSTRUCTURE
     1 23Q         1 TEMP              0 ****  ****    0 ROOT
