@<TRIPOS>MOLECULE
23R
   79    82     1     0     0
SMALL
abcg2


@<TRIPOS>ATOM
      1 O3           8.2870    -0.3920    -0.9990 oh         1 23R      -0.662000
      2 C3           6.9410    -0.6300    -0.6390 c6         1 23R       0.177300
      3 C2           6.9170    -1.7940     0.3500 c6         1 23R      -0.043700
      4 C29          7.5630    -3.0560    -0.2130 c3         1 23R      -0.076100
      5 C1           5.4860    -2.0620     0.8250 c6         1 23R       0.210500
      6 O1           4.7370    -2.5350    -0.2780 oh         1 23R      -0.654000
      7 C10          4.8470    -0.8130     1.3850 ce         1 23R      -0.123200
      8 C19          4.2920    -0.8050     2.5960 c2         1 23R      -0.296000
      9 C4           6.3170     0.6220    -0.0170 c6         1 23R      -0.072200
     10 C5           4.9300     0.3630     0.5020 ce         1 23R      -0.067200
     11 C6           3.8930     1.1480     0.1620 cf         1 23R      -0.162000
     12 C7           2.5040     0.9610     0.5330 cf         1 23R      -0.191000
     13 C8           1.5110     1.8440     0.3410 c2         1 23R      -0.076400
     14 C9           1.6710     3.2280    -0.2270 c6         1 23R      -0.042200
     15 C11          0.6740     3.5090    -1.3570 c6         1 23R      -0.070400
     16 C12         -0.7660     3.1570    -0.9820 c6         1 23R      -0.064400
     17 C14          0.0920     1.5710     0.7250 c5         1 23R      -0.038500
     18 C13         -0.8880     1.7190    -0.4670 c5         1 23R      -0.028000
     19 C18         -0.5510     0.7190    -1.5750 c3         1 23R      -0.074100
     20 C15         -0.3040     0.2520     1.3700 c5         1 23R      -0.070400
     21 C16         -1.8390     0.2300     1.2290 c5         1 23R      -0.073400
     22 C17         -2.2150     1.3790     0.2570 c5         1 23R      -0.044700
     23 C20         -3.5050     1.1010    -0.5320 c5         1 23R       0.189000
     24 C22         -4.7020     0.9090     0.4400 c5         1 23R      -0.110400
     25 C21         -3.8350     2.2060    -1.5340 c3         1 23R      -0.104100
     26 O20         -3.3970    -0.1370    -1.2290 os         1 23R      -0.451000
     27 C24         -4.6490    -0.7860    -1.2100 c5         1 23R       0.159600
     28 C23         -5.2180    -0.5120     0.1770 c5         1 23R      -0.091700
     29 C25         -6.7310    -0.6190     0.3130 c3         1 23R      -0.092400
     30 C26         -7.3560    -2.0030     0.0900 c3         1 23R       0.185000
     31 C28         -6.7380    -3.0500     1.0070 c3         1 23R      -0.101100
     32 C27         -8.8620    -1.9120     0.3420 c3         1 23R      -0.101100
     33 O26         -7.1200    -2.4570    -1.2380 oh         1 23R      -0.660000
     34 HO3          8.2970     0.2570    -1.7100 ho         1 23R       0.440000
     35 H3           6.3550    -0.9110    -1.5250 h1         1 23R       0.051700
     36 H2           7.4760    -1.4840     1.2420 hc         1 23R       0.058700
     37 H29          8.6220    -2.9030    -0.4150 hc         1 23R       0.039367
     38 H29A         7.4840    -3.8810     0.4970 hc         1 23R       0.039367
     39 H29B         7.0860    -3.3680    -1.1430 hc         1 23R       0.039367
     40 H1           5.5280    -2.8220     1.6190 h1         1 23R       0.035700
     41 HO1          3.8310    -2.6760     0.0140 ho         1 23R       0.443000
     42 H19          4.2790    -1.6960     3.2120 ha         1 23R       0.168500
     43 H19A         3.8500     0.0880     3.0190 ha         1 23R       0.168500
     44 H4           6.9620     0.9400     0.8120 hc         1 23R       0.051200
     45 H4A          6.3030     1.4350    -0.7470 hc         1 23R       0.051200
     46 H6           4.1220     1.9880    -0.4870 ha         1 23R       0.169000
     47 H7           2.2550     0.0140     1.0010 ha         1 23R       0.175000
     48 H9           1.4870     3.9440     0.5830 hc         1 23R       0.045200
     49 H9A          2.6850     3.4210    -0.5750 hc         1 23R       0.045200
     50 H11          0.7310     4.5660    -1.6270 hc         1 23R       0.040700
     51 H11A         0.9750     2.9540    -2.2490 hc         1 23R       0.040700
     52 H12         -1.1120     3.8400    -0.1960 hc         1 23R       0.038700
     53 H12A        -1.4110     3.3310    -1.8440 hc         1 23R       0.038700
     54 H14         -0.1860     2.3700     1.4320 hc         1 23R       0.048700
     55 H18          0.4820     0.8280    -1.9080 hc         1 23R       0.038700
     56 H18A        -0.6790    -0.3140    -1.2530 hc         1 23R       0.038700
     57 H18B        -1.1940     0.8640    -2.4430 hc         1 23R       0.038700
     58 H15          0.1430    -0.5920     0.8400 hc         1 23R       0.044200
     59 H15A         0.0250     0.1830     2.4080 hc         1 23R       0.044200
     60 H16         -2.1790    -0.7340     0.8530 hc         1 23R       0.045200
     61 H16A        -2.3220     0.3740     2.1960 hc         1 23R       0.045200
     62 H17         -2.4470     2.2630     0.8650 hc         1 23R       0.041700
     63 H22         -4.4200     1.0500     1.4840 hc         1 23R       0.049200
     64 H22A        -5.4820     1.6470     0.2290 hc         1 23R       0.049200
     65 H21         -3.1080     2.2600    -2.3440 hc         1 23R       0.040033
     66 H21A        -4.8150     2.0320    -1.9840 hc         1 23R       0.040033
     67 H21B        -3.8700     3.1800    -1.0450 hc         1 23R       0.040033
     68 H24         -5.3160    -0.3850    -1.9880 h1         1 23R       0.049700
     69 H24A        -4.4900    -1.8430    -1.4230 h1         1 23R       0.049700
     70 H23         -4.7390    -1.1920     0.8890 hc         1 23R       0.061700
     71 H25         -7.0110    -0.2760     1.3150 hc         1 23R       0.042200
     72 H25A        -7.2000     0.0920    -0.3800 hc         1 23R       0.042200
     73 H28         -6.8340    -2.7490     2.0510 hc         1 23R       0.042367
     74 H28A        -7.2380    -4.0130     0.8890 hc         1 23R       0.042367
     75 H28B        -5.6770    -3.1950     0.7950 hc         1 23R       0.042367
     76 H27         -9.3240    -1.1660    -0.3100 hc         1 23R       0.042367
     77 H27A        -9.3470    -2.8720     0.1530 hc         1 23R       0.042367
     78 H27B        -9.0750    -1.6230     1.3720 hc         1 23R       0.042367
     79 HO26        -7.5130    -1.8230    -1.8470 ho         1 23R       0.439000
@<TRIPOS>BOND
     1     1     2 1   
     2     1    34 1   
     3     2     3 1   
     4     2     9 1   
     5     2    35 1   
     6     3     4 1   
     7     3     5 1   
     8     3    36 1   
     9     4    37 1   
    10     4    38 1   
    11     4    39 1   
    12     5     6 1   
    13     5     7 1   
    14     5    40 1   
    15     6    41 1   
    16     7     8 2   
    17     7    10 1   
    18     8    42 1   
    19     8    43 1   
    20     9    10 1   
    21     9    44 1   
    22     9    45 1   
    23    10    11 2   
    24    11    12 1   
    25    11    46 1   
    26    12    13 2   
    27    12    47 1   
    28    13    14 1   
    29    13    17 1   
    30    14    15 1   
    31    14    48 1   
    32    14    49 1   
    33    15    16 1   
    34    15    50 1   
    35    15    51 1   
    36    16    18 1   
    37    16    52 1   
    38    16    53 1   
    39    17    18 1   
    40    17    20 1   
    41    17    54 1   
    42    18    19 1   
    43    18    22 1   
    44    19    55 1   
    45    19    56 1   
    46    19    57 1   
    47    20    21 1   
    48    20    58 1   
    49    20    59 1   
    50    21    22 1   
    51    21    60 1   
    52    21    61 1   
    53    22    23 1   
    54    22    62 1   
    55    23    24 1   
    56    23    25 1   
    57    23    26 1   
    58    24    28 1   
    59    24    63 1   
    60    24    64 1   
    61    25    65 1   
    62    25    66 1   
    63    25    67 1   
    64    26    27 1   
    65    27    28 1   
    66    27    68 1   
    67    27    69 1   
    68    28    29 1   
    69    28    70 1   
    70    29    30 1   
    71    29    71 1   
    72    29    72 1   
    73    30    31 1   
    74    30    32 1   
    75    30    33 1   
    76    31    73 1   
    77    31    74 1   
    78    31    75 1   
    79    32    76 1   
    80    32    77 1   
    81    32    78 1   
    82    33    79 1   
@<TRIPOS>SUBSTRUCTURE
     1 23R         1 TEMP              0 ****  ****    0 ROOT
