@<TRIPOS>MOLECULE
23R
   79    82     1     0     0
SMALL
No Charge or Current Charge


@<TRIPOS>ATOM
      1 O3           8.3380    -0.5280    -0.8000 oh         1 23R      -0.662000
      2 C3           6.9540    -0.7710    -0.5060 c6         1 23R       0.177300
      3 C2           6.7980    -2.0030     0.4380 c6         1 23R      -0.043700
      4 C29          7.4290    -3.3010    -0.1500 c3         1 23R      -0.076100
      5 C1           5.3060    -2.2140     0.8370 c6         1 23R       0.210500
      6 O1           4.5160    -2.6370    -0.2780 oh         1 23R      -0.654000
      7 C10          4.7000    -0.9220     1.4010 ce         1 23R      -0.123200
      8 C19          4.0900    -0.8890     2.6070 c2         1 23R      -0.296000
      9 C4           6.3380     0.4990     0.1360 c6         1 23R      -0.072200
     10 C5           4.8800     0.2700     0.5530 ce         1 23R      -0.067200
     11 C6           3.8990     1.1500     0.1940 cf         1 23R      -0.162000
     12 C7           2.4750     1.0250     0.5220 cf         1 23R      -0.191000
     13 C8           1.4920     1.9490     0.3230 c2         1 23R      -0.076400
     14 C9           1.7320     3.3560    -0.2450 c6         1 23R      -0.042200
     15 C11          0.7580     3.7000    -1.4030 c6         1 23R      -0.070400
     16 C12         -0.7220     3.3780    -1.0510 c6         1 23R      -0.064400
     17 C14          0.0210     1.7230     0.7190 c5         1 23R      -0.038500
     18 C13         -0.8990     1.9100    -0.5390 c5         1 23R      -0.028000
     19 C18         -0.5810     0.9220    -1.7180 c3         1 23R      -0.074100
     20 C15         -0.3700     0.3010     1.2230 c5         1 23R      -0.070400
     21 C16         -1.9240     0.2700     1.0330 c5         1 23R      -0.073400
     22 C17         -2.2530     1.6110     0.2260 c5         1 23R      -0.044700
     23 C20         -3.5380     1.4120    -0.7060 c5         1 23R       0.189000
     24 C22         -4.7800     1.0970     0.2660 c5         1 23R      -0.110400
     25 C21         -3.8730     2.5440    -1.7050 c3         1 23R      -0.104100
     26 O20         -3.4720     0.1160    -1.4440 os         1 23R      -0.451000
     27 C24         -4.7360    -0.6780    -1.3850 c5         1 23R       0.159600
     28 C23         -5.1800    -0.4450     0.0910 c5         1 23R      -0.091700
     29 C25         -6.6660    -0.7590     0.4350 c3         1 23R      -0.092400
     30 C26         -7.1590    -2.2310     0.2680 c3         1 23R       0.185000
     31 C28         -6.2740    -3.2420     1.0350 c3         1 23R      -0.101100
     32 C27         -8.6280    -2.3530     0.7370 c3         1 23R      -0.101100
     33 O26         -7.1290    -2.5820    -1.1160 oh         1 23R      -0.660000
     34 HO3          8.3620     0.2040    -1.4550 ho         1 23R       0.440000
     35 H3           6.4080    -0.9820    -1.4380 h1         1 23R       0.051700
     36 H2           7.3550    -1.7930     1.3620 hc         1 23R       0.058700
     37 H29          8.5110    -3.1930    -0.2910 hc         1 23R       0.039367
     38 H29A         7.2730    -4.1550     0.5210 hc         1 23R       0.039367
     39 H29B         6.9930    -3.5570    -1.1230 hc         1 23R       0.039367
     40 H1           5.2730    -2.9880     1.6180 h1         1 23R       0.035700
     41 HO1          3.5890    -2.4280    -0.0370 ho         1 23R       0.443000
     42 H19          3.9830    -1.7800     3.2250 ha         1 23R       0.168500
     43 H19A         3.6850     0.0380     3.0150 ha         1 23R       0.168500
     44 H4           6.9200     0.7890     1.0220 hc         1 23R       0.051200
     45 H4A          6.4110     1.3390    -0.5680 hc         1 23R       0.051200
     46 H6           4.2040     2.0010    -0.4110 ha         1 23R       0.169000
     47 H7           2.2050     0.0730     0.9740 ha         1 23R       0.175000
     48 H9           1.5880     4.0840     0.5650 hc         1 23R       0.045200
     49 H9A          2.7580     3.5080    -0.5930 hc         1 23R       0.045200
     50 H11          0.8510     4.7650    -1.6550 hc         1 23R       0.040700
     51 H11A         1.0580     3.1550    -2.3080 hc         1 23R       0.040700
     52 H12         -1.0670     4.0810    -0.2800 hc         1 23R       0.038700
     53 H12A        -1.3370     3.5710    -1.9360 hc         1 23R       0.038700
     54 H14         -0.2260     2.4570     1.4970 hc         1 23R       0.048700
     55 H18          0.4750     0.9500    -2.0080 hc         1 23R       0.038700
     56 H18A        -0.8080    -0.1210    -1.4740 hc         1 23R       0.038700
     57 H18B        -1.1660     1.1710    -2.6110 hc         1 23R       0.038700
     58 H15          0.0940    -0.4980     0.6340 hc         1 23R       0.044200
     59 H15A        -0.0760     0.1400     2.2670 hc         1 23R       0.044200
     60 H16         -2.2030    -0.6860     0.5530 hc         1 23R       0.045200
     61 H16A        -2.4360     0.2750     2.0010 hc         1 23R       0.045200
     62 H17         -2.4600     2.4240     0.9340 hc         1 23R       0.041700
     63 H22         -4.5720     1.3330     1.3160 hc         1 23R       0.049200
     64 H22A        -5.6330     1.7340     0.0050 hc         1 23R       0.049200
     65 H21         -3.1890     2.5390    -2.5590 hc         1 23R       0.040033
     66 H21A        -4.8840     2.4290    -2.1130 hc         1 23R       0.040033
     67 H21B        -3.8180     3.5240    -1.2190 hc         1 23R       0.040033
     68 H24         -5.4560    -0.2620    -2.1030 h1         1 23R       0.049700
     69 H24A        -4.5400    -1.7310    -1.6250 h1         1 23R       0.049700
     70 H23         -4.5590    -1.0510     0.7570 hc         1 23R       0.061700
     71 H25         -6.8400    -0.4630     1.4780 hc         1 23R       0.042200
     72 H25A        -7.3140    -0.1070    -0.1640 hc         1 23R       0.042200
     73 H28         -6.2090    -2.9730     2.0970 hc         1 23R       0.042367
     74 H28A        -6.6900    -4.2540     0.9670 hc         1 23R       0.042367
     75 H28B        -5.2580    -3.2740     0.6260 hc         1 23R       0.042367
     76 H27         -9.2770    -1.6570     0.1920 hc         1 23R       0.042367
     77 H27A        -9.0090    -3.3690     0.5760 hc         1 23R       0.042367
     78 H27B        -8.7140    -2.1260     1.8070 hc         1 23R       0.042367
     79 HO26        -7.8270    -2.0550    -1.5590 ho         1 23R       0.439000
@<TRIPOS>BOND
     1     1     2 1   
     2     1    34 1   
     3     2     3 1   
     4     2     9 1   
     5     2    35 1   
     6     3     4 1   
     7     3     5 1   
     8     3    36 1   
     9     4    37 1   
    10     4    38 1   
    11     4    39 1   
    12     5     6 1   
    13     5     7 1   
    14     5    40 1   
    15     6    41 1   
    16     7     8 2   
    17     7    10 1   
    18     8    42 1   
    19     8    43 1   
    20     9    10 1   
    21     9    44 1   
    22     9    45 1   
    23    10    11 2   
    24    11    12 1   
    25    11    46 1   
    26    12    13 2   
    27    12    47 1   
    28    13    14 1   
    29    13    17 1   
    30    14    15 1   
    31    14    48 1   
    32    14    49 1   
    33    15    16 1   
    34    15    50 1   
    35    15    51 1   
    36    16    18 1   
    37    16    52 1   
    38    16    53 1   
    39    17    18 1   
    40    17    20 1   
    41    17    54 1   
    42    18    19 1   
    43    18    22 1   
    44    19    55 1   
    45    19    56 1   
    46    19    57 1   
    47    20    21 1   
    48    20    58 1   
    49    20    59 1   
    50    21    22 1   
    51    21    60 1   
    52    21    61 1   
    53    22    23 1   
    54    22    62 1   
    55    23    24 1   
    56    23    25 1   
    57    23    26 1   
    58    24    28 1   
    59    24    63 1   
    60    24    64 1   
    61    25    65 1   
    62    25    66 1   
    63    25    67 1   
    64    26    27 1   
    65    27    28 1   
    66    27    68 1   
    67    27    69 1   
    68    28    29 1   
    69    28    70 1   
    70    29    30 1   
    71    29    71 1   
    72    29    72 1   
    73    30    31 1   
    74    30    32 1   
    75    30    33 1   
    76    31    73 1   
    77    31    74 1   
    78    31    75 1   
    79    32    76 1   
    80    32    77 1   
    81    32    78 1   
    82    33    79 1   
@<TRIPOS>SUBSTRUCTURE
     1 23R         1 TEMP              0 ****  ****    0 ROOT
