@<TRIPOS>MOLECULE
23S
   23    24     1     0     0
SMALL
No Charge or Current Charge


@<TRIPOS>ATOM
      1 CD2         -0.5230     0.0440     0.3920 cc         1 23S      -0.145000
      2 CE2         -1.5700     0.7500     0.0110 cd         1 23S      -0.129000
      3 NE1         -1.2010     2.0570    -0.2530 na         1 23S      -0.099000
      4 CD1          0.1950     2.1240    -0.0130 cd         1 23S      -0.207000
      5 CG           0.6220     0.8640     0.3880 cc         1 23S      -0.064300
      6 SEL         -3.0990    -0.0940    -0.0330 ss         1 23S      -0.096000
      7 CZ2         -2.1910    -1.5520     0.5160 cd         1 23S      -0.154000
      8 CZ3         -0.8360    -1.3000     0.6940 cc         1 23S      -0.035000
      9 CB           2.0100     0.4120     0.7690 c3         1 23S      -0.047100
     10 CA           2.9130     0.0710    -0.4450 c3         1 23S       0.030500
     11 N            2.2750    -1.0100    -1.2820 n8         1 23S      -0.985200
     12 C            4.4070    -0.1810     0.0230 c          1 23S       0.723000
     13 O            4.6540    -1.1880     0.6770 o          1 23S      -0.731500
     14 OXT          5.2720     0.6040    -0.3430 o          1 23S      -0.731500
     15 HE1         -1.8100     2.8120    -0.5550 hn         1 23S       0.342000
     16 HD1          0.7610     3.0400    -0.1420 h4         1 23S       0.146000
     17 HZ2         -2.7120    -2.4890     0.6740 h4         1 23S       0.135000
     18 HZ3         -0.1030    -2.0290     1.0260 ha         1 23S       0.142000
     19 HB1          2.4940     1.2070     1.3490 hc         1 23S       0.054700
     20 HB2          1.9530    -0.4560     1.4370 hc         1 23S       0.054700
     21 HA           2.9400     0.9720    -1.0740 h1         1 23S       0.042700
     22 H            2.3320    -1.8950    -0.7670 hn         1 23S       0.377500
     23 HN2          1.2670    -0.8180    -1.3260 hn         1 23S       0.377500
@<TRIPOS>BOND
     1     1     2 2   
     2     1     5 1   
     3     1     8 1   
     4     2     3 1   
     5     2     6 1   
     6     3     4 1   
     7     3    15 1   
     8     4     5 2   
     9     4    16 1   
    10     5     9 1   
    11     6     7 1   
    12     7     8 2   
    13     7    17 1   
    14     8    18 1   
    15     9    10 1   
    16     9    19 1   
    17     9    20 1   
    18    10    11 1   
    19    10    12 1   
    20    10    21 1   
    21    11    22 1   
    22    11    23 1   
    23    12    13 1   
    24    12    14 1   
@<TRIPOS>SUBSTRUCTURE
     1 23S         1 TEMP              0 ****  ****    0 ROOT
