@<TRIPOS>MOLECULE
23S
   23    24     1     0     0
SMALL
bcc


@<TRIPOS>ATOM
      1 CD2         -0.4710     0.0630     0.3750 cc         1 23S      -0.145000
      2 CE2         -1.5730     0.8200     0.0100 cd         1 23S       0.066600
      3 NE1         -1.1860     2.0980    -0.1870 na         1 23S      -0.150100
      4 CD1          0.1650     2.1800     0.0500 cd         1 23S      -0.174300
      5 CG           0.6540     0.9460     0.4000 cc         1 23S      -0.064300
      6 SEL         -3.1480    -0.1570    -0.0640 ss         1 23S      -0.385800
      7 CZ2         -2.0880    -1.6300     0.4500 cd         1 23S      -0.027100
      8 CZ3         -0.7830    -1.3140     0.6180 cc         1 23S      -0.053000
      9 CB           2.0730     0.6010     0.7100 c3         1 23S      -0.047100
     10 CA           2.8540     0.0080    -0.4880 c3         1 23S       0.030500
     11 N            2.2370    -1.1490    -1.1070 n8         1 23S      -0.874800
     12 C            4.2830    -0.3140    -0.0010 c          1 23S       0.933600
     13 O            4.5630    -1.5100     0.2080 o          1 23S      -0.836800
     14 OXT          5.0290     0.6690     0.1890 o          1 23S      -0.836800
     15 HE1         -1.7760     2.8710    -0.4470 hn         1 23S       0.291700
     16 HD1          0.6780     3.1240    -0.0460 h4         1 23S       0.164000
     17 HZ2         -2.5420    -2.6030     0.5760 h4         1 23S       0.153000
     18 HZ3         -0.0480    -2.0540     0.9060 ha         1 23S       0.160000
     19 HB1          2.6000     1.4920     1.0580 hc         1 23S       0.054700
     20 HB2          2.1000    -0.1210     1.5350 hc         1 23S       0.054700
     21 HA           2.9210     0.7960    -1.2460 h1         1 23S       0.042700
     22 H            2.2400    -1.9210    -0.4510 hn         1 23S       0.322300
     23 HN2          1.2690    -0.9500    -1.3250 hn         1 23S       0.322300
@<TRIPOS>BOND
     1     1     2 2   
     2     1     5 1   
     3     1     8 1   
     4     2     3 1   
     5     2     6 1   
     6     3     4 1   
     7     3    15 1   
     8     4     5 2   
     9     4    16 1   
    10     5     9 1   
    11     6     7 1   
    12     7     8 2   
    13     7    17 1   
    14     8    18 1   
    15     9    10 1   
    16     9    19 1   
    17     9    20 1   
    18    10    11 1   
    19    10    12 1   
    20    10    21 1   
    21    11    22 1   
    22    11    23 1   
    23    12    13 1   
    24    12    14 1   
@<TRIPOS>SUBSTRUCTURE
     1 23S         1 TEMP              0 ****  ****    0 ROOT
