@<TRIPOS>MOLECULE
23U
   61    64     1     0     0
SMALL
No Charge or Current Charge


@<TRIPOS>ATOM
      1 C1           3.5320     1.6970    -0.3980 ca         1 23U      -0.080800
      2 C2           4.5260     2.5170     0.1800 ca         1 23U      -0.097000
      3 C3           4.5330     3.9030    -0.0560 ca         1 23U      -0.114000
      4 C4           3.5490     4.4840    -0.8710 ca         1 23U      -0.107500
      5 C5           2.5560     3.6770    -1.4510 ca         1 23U      -0.114000
      6 C6           2.5480     2.2910    -1.2170 ca         1 23U      -0.097000
      7 C7           4.9330    -0.4130    -0.2230 ca         1 23U      -0.080800
      8 C8           3.5120     0.1800    -0.1580 c3         1 23U       0.044900
      9 C9           2.6740    -0.2170     1.1080 c3         1 23U       0.108500
     10 N2           2.9940     0.6410     2.3110 n8         1 23U      -0.991200
     11 C10          1.1430    -0.2830     0.7380 c          1 23U       0.568100
     12 O32          0.3910     0.6510     1.0010 o          1 23U      -0.605100
     13 N1           0.6380    -1.4400     0.0960 n          1 23U      -0.399800
     14 C11          1.4470    -2.6320    -0.2440 c5         1 23U       0.104000
     15 C12          0.5570    -3.2940    -1.3210 c5         1 23U      -0.093400
     16 C13         -0.8560    -3.0870    -0.7260 c5         1 23U      -0.087400
     17 C14         -0.8080    -1.6020    -0.2460 c5         1 23U       0.026700
     18 C15         -1.8080    -1.4470     0.9470 c          1 23U       0.606100
     19 N23         -3.0560    -1.1300     0.4570 ns         1 23U      -0.498900
     20 C16         -4.2340    -0.9170     1.2930 c3         1 23U       0.144300
     21 C17         -5.4530    -0.5990     0.4430 ca         1 23U      -0.099300
     22 C18         -6.2870    -1.6360    -0.0200 ca         1 23U      -0.095000
     23 C19         -7.4120    -1.3420    -0.8120 ca         1 23U      -0.104000
     24 C20         -7.7080    -0.0090    -1.1450 ca         1 23U      -0.101000
     25 C21         -6.8770     1.0270    -0.6880 ca         1 23U       0.121000
     26 C22         -5.7530     0.7350     0.1030 ca         1 23U      -0.100000
     27 Cl1         -7.2440     2.6960    -1.1080 cl         1 23U      -0.205000
     28 O22         -1.5780    -1.5840     2.1430 o          1 23U      -0.593100
     29 C23          5.5470    -0.5430    -1.4870 ca         1 23U      -0.097000
     30 C24          6.8420    -1.0770    -1.6060 ca         1 23U      -0.114000
     31 C25          7.5420    -1.4870    -0.4610 ca         1 23U      -0.107500
     32 C26          6.9460    -1.3580     0.8030 ca         1 23U      -0.114000
     33 C27          5.6510    -0.8240     0.9240 ca         1 23U      -0.097000
     34 H2           5.2930     2.0820     0.8160 ha         1 23U       0.118750
     35 H3           5.3030     4.5260     0.3950 ha         1 23U       0.111000
     36 H4           3.5550     5.5560    -1.0530 ha         1 23U       0.111000
     37 H5           1.7920     4.1260    -2.0830 ha         1 23U       0.111000
     38 H6           1.7720     1.6800    -1.6720 ha         1 23U       0.118750
     39 H8           2.9850    -0.2610    -1.0130 hc         1 23U       0.052700
     40 H9           2.9460    -1.2460     1.3790 h1         1 23U       0.072700
     41 HN2          2.7390     1.6100     2.0820 hn         1 23U       0.416000
     42 HN2A         2.3430     0.4090     3.0710 hn         1 23U       0.416000
     43 H11          2.4410    -2.3920    -0.6410 h1         1 23U       0.056700
     44 H11A         1.5700    -3.2810     0.6340 h1         1 23U       0.056700
     45 H12          0.6600    -2.7850    -2.2870 hc         1 23U       0.057700
     46 H12A         0.8030    -4.3510    -1.4770 hc         1 23U       0.057700
     47 H13         -1.6540    -3.2660    -1.4560 hc         1 23U       0.061200
     48 H13A        -1.0240    -3.7770     0.1110 hc         1 23U       0.061200
     49 H14         -1.0830    -0.9080    -1.0510 h1         1 23U       0.066700
     50 HN23        -3.1560    -1.0430    -0.5470 hn         1 23U       0.315500
     51 H16         -4.4190    -1.8210     1.8890 h1         1 23U       0.070700
     52 H16A        -4.0360    -0.0900     1.9880 h1         1 23U       0.070700
     53 H18         -6.0640    -2.6710     0.2320 ha         1 23U       0.121000
     54 H19         -8.0530    -2.1460    -1.1660 ha         1 23U       0.118000
     55 H20         -8.5760     0.2210    -1.7570 ha         1 23U       0.130000
     56 H22         -5.1160     1.5460     0.4490 ha         1 23U       0.128000
     57 H23          5.0180    -0.2270    -2.3830 ha         1 23U       0.118750
     58 H24          7.3020    -1.1720    -2.5870 ha         1 23U       0.111000
     59 H25          8.5440    -1.8990    -0.5520 ha         1 23U       0.111000
     60 H26          7.4880    -1.6700     1.6930 ha         1 23U       0.111000
     61 H27          5.2210    -0.7290     1.9170 ha         1 23U       0.118750
@<TRIPOS>BOND
     1     1     2 ar  
     2     1     6 ar  
     3     1     8 1   
     4     2     3 ar  
     5     2    34 1   
     6     3     4 ar  
     7     3    35 1   
     8     4     5 ar  
     9     4    36 1   
    10     5     6 ar  
    11     5    37 1   
    12     6    38 1   
    13     7     8 1   
    14     7    29 ar  
    15     7    33 ar  
    16     8     9 1   
    17     8    39 1   
    18     9    10 1   
    19     9    11 1   
    20     9    40 1   
    21    10    41 1   
    22    10    42 1   
    23    11    12 2   
    24    11    13 1   
    25    13    14 1   
    26    13    17 1   
    27    14    15 1   
    28    14    43 1   
    29    14    44 1   
    30    15    16 1   
    31    15    45 1   
    32    15    46 1   
    33    16    17 1   
    34    16    47 1   
    35    16    48 1   
    36    17    18 1   
    37    17    49 1   
    38    18    19 1   
    39    18    28 2   
    40    19    20 1   
    41    19    50 1   
    42    20    21 1   
    43    20    51 1   
    44    20    52 1   
    45    21    22 ar  
    46    21    26 ar  
    47    22    23 ar  
    48    22    53 1   
    49    23    24 ar  
    50    23    54 1   
    51    24    25 ar  
    52    24    55 1   
    53    25    26 ar  
    54    25    27 1   
    55    26    56 1   
    56    29    30 ar  
    57    29    57 1   
    58    30    31 ar  
    59    30    58 1   
    60    31    32 ar  
    61    31    59 1   
    62    32    33 ar  
    63    32    60 1   
    64    33    61 1   
@<TRIPOS>SUBSTRUCTURE
     1 23U         1 TEMP              0 ****  ****    0 ROOT
