@<TRIPOS>MOLECULE
23U
   61    64     1     0     0
SMALL
bcc


@<TRIPOS>ATOM
      1 C1           3.6240     1.5110    -0.3310 ca         1 23U      -0.080800
      2 C2           4.5180     2.2770     0.4150 ca         1 23U      -0.115000
      3 C3           4.5990     3.6500     0.2310 ca         1 23U      -0.132000
      4 C4           3.7890     4.2810    -0.7040 ca         1 23U      -0.125500
      5 C5           2.8970     3.5270    -1.4550 ca         1 23U      -0.132000
      6 C6           2.8160     2.1540    -1.2660 ca         1 23U      -0.115000
      7 C7           4.8590    -0.6590    -0.0390 ca         1 23U      -0.080800
      8 C8           3.5060     0.0140    -0.1370 c3         1 23U       0.044900
      9 C9           2.5430    -0.3400     1.0300 c3         1 23U       0.108500
     10 N2           2.8540     0.3970     2.2300 n8         1 23U      -0.880800
     11 C10          1.1050    -0.1190     0.5540 c          1 23U       0.635100
     12 O32          0.4970     0.9080     0.8280 o          1 23U      -0.605100
     13 N1           0.5470    -1.0710    -0.2120 n          1 23U      -0.466800
     14 C11          1.1100    -2.3640    -0.5860 c5         1 23U       0.104000
     15 C12          0.3080    -2.7220    -1.8280 c5         1 23U      -0.093400
     16 C13         -1.0800    -2.1830    -1.5010 c5         1 23U      -0.087400
     17 C14         -0.7930    -0.8820    -0.7320 c5         1 23U       0.026700
     18 C15         -1.8060    -0.6910     0.3880 c          1 23U       0.673100
     19 N23         -2.8270     0.1210     0.0680 ns         1 23U      -0.565900
     20 C16         -3.9660     0.3700     0.9150 c3         1 23U       0.144300
     21 C17         -5.2270    -0.3100     0.4360 ca         1 23U      -0.099300
     22 C18         -5.2120    -1.6200    -0.0340 ca         1 23U      -0.113000
     23 C19         -6.3880    -2.2350    -0.4360 ca         1 23U      -0.122000
     24 C20         -7.5990    -1.5580    -0.3780 ca         1 23U      -0.119000
     25 C21         -7.6030    -0.2540     0.0880 ca         1 23U       0.029400
     26 C22         -6.4350     0.3760     0.4910 ca         1 23U      -0.118000
     27 CL1         -9.1010     0.6180     0.1610 cl         1 23U      -0.113400
     28 O22         -1.7170    -1.2950     1.4440 o          1 23U      -0.593100
     29 C23          5.5230    -0.9700    -1.2260 ca         1 23U      -0.115000
     30 C24          6.7670    -1.5830    -1.2130 ca         1 23U      -0.132000
     31 C25          7.3720    -1.9020    -0.0040 ca         1 23U      -0.125500
     32 C26          6.7210    -1.5970     1.1830 ca         1 23U      -0.132000
     33 C27          5.4760    -0.9800     1.1670 ca         1 23U      -0.115000
     34 H2           5.1640     1.7980     1.1390 ha         1 23U       0.136750
     35 H3           5.3010     4.2290     0.8170 ha         1 23U       0.129000
     36 H4           3.8580     5.3510    -0.8530 ha         1 23U       0.129000
     37 H5           2.2660     4.0080    -2.1920 ha         1 23U       0.129000
     38 H6           2.1200     1.5750    -1.8620 ha         1 23U       0.136750
     39 H8           3.0470    -0.3750    -1.0520 hc         1 23U       0.052700
     40 H9           2.6800    -1.4020     1.2520 h1         1 23U       0.072700
     41 HN2          2.5470     1.3570     2.1340 hn         1 23U       0.360800
     42 HN2A         2.3350     0.0100     3.0090 hn         1 23U       0.360800
     43 H11          2.1780    -2.3040    -0.7880 h1         1 23U       0.056700
     44 H11A         0.9590    -3.0990     0.2090 h1         1 23U       0.056700
     45 H12          0.7220    -2.2090    -2.6990 hc         1 23U       0.057700
     46 H12A         0.3120    -3.7920    -2.0310 hc         1 23U       0.057700
     47 H13         -1.6950    -2.0000    -2.3800 hc         1 23U       0.061200
     48 H13A        -1.6110    -2.8940    -0.8640 hc         1 23U       0.061200
     49 H14         -0.8120    -0.0230    -1.4110 h1         1 23U       0.066700
     50 HN23        -2.8100     0.5880    -0.8260 hn         1 23U       0.315500
     51 H16         -3.7250     0.0290     1.9220 h1         1 23U       0.070700
     52 H16A        -4.1320     1.4470     0.9790 h1         1 23U       0.070700
     53 H18         -4.2820    -2.1710    -0.0900 ha         1 23U       0.139000
     54 H19         -6.3670    -3.2540    -0.7990 ha         1 23U       0.136000
     55 H20         -8.5160    -2.0370    -0.6910 ha         1 23U       0.148000
     56 H22         -6.4630     1.3990     0.8440 ha         1 23U       0.146000
     57 H23          5.0570    -0.7290    -2.1750 ha         1 23U       0.136750
     58 H24          7.2600    -1.8160    -2.1480 ha         1 23U       0.129000
     59 H25          8.3410    -2.3850     0.0120 ha         1 23U       0.129000
     60 H26          7.1840    -1.8380     2.1320 ha         1 23U       0.129000
     61 H27          4.9850    -0.7360     2.1000 ha         1 23U       0.136750
@<TRIPOS>BOND
     1     1     2 ar  
     2     1     6 ar  
     3     1     8 1   
     4     2     3 ar  
     5     2    34 1   
     6     3     4 ar  
     7     3    35 1   
     8     4     5 ar  
     9     4    36 1   
    10     5     6 ar  
    11     5    37 1   
    12     6    38 1   
    13     7     8 1   
    14     7    29 ar  
    15     7    33 ar  
    16     8     9 1   
    17     8    39 1   
    18     9    10 1   
    19     9    11 1   
    20     9    40 1   
    21    10    41 1   
    22    10    42 1   
    23    11    12 2   
    24    11    13 1   
    25    13    14 1   
    26    13    17 1   
    27    14    15 1   
    28    14    43 1   
    29    14    44 1   
    30    15    16 1   
    31    15    45 1   
    32    15    46 1   
    33    16    17 1   
    34    16    47 1   
    35    16    48 1   
    36    17    18 1   
    37    17    49 1   
    38    18    19 1   
    39    18    28 2   
    40    19    20 1   
    41    19    50 1   
    42    20    21 1   
    43    20    51 1   
    44    20    52 1   
    45    21    22 ar  
    46    21    26 ar  
    47    22    23 ar  
    48    22    53 1   
    49    23    24 ar  
    50    23    54 1   
    51    24    25 ar  
    52    24    55 1   
    53    25    26 ar  
    54    25    27 1   
    55    26    56 1   
    56    29    30 ar  
    57    29    57 1   
    58    30    31 ar  
    59    30    58 1   
    60    31    32 ar  
    61    31    59 1   
    62    32    33 ar  
    63    32    60 1   
    64    33    61 1   
@<TRIPOS>SUBSTRUCTURE
     1 23U         1 TEMP              0 ****  ****    0 ROOT
