@<TRIPOS>MOLECULE
23V
   42    43     1     0     0
SMALL
abcg2


@<TRIPOS>ATOM
      1 C1          -2.4170    -0.2040     0.5580 c6         1 23V       0.298700
      2 N1          -1.0390    -0.5640     0.6300 ns         1 23V      -0.429900
      3 S1          -1.5310    -3.0730     1.4460 s          1 23V      -0.610400
      4 CL1          7.6760     0.1480    -0.5340 cl         1 23V      -0.193000
      5 C2          -2.6270     1.2300     1.0500 c6         1 23V       0.102300
      6 N2           0.7510    -1.9510     0.8550 ns         1 23V      -0.226900
      7 O2          -2.3090     1.3590     2.4110 oh         1 23V      -0.713000
      8 C3          -4.0970     1.5910     0.8820 c6         1 23V       0.139300
      9 N3           1.5470    -0.9570     0.4380 n2         1 23V      -0.485300
     10 O3          -4.3120    -1.7170    -2.6920 oh         1 23V      -0.704000
     11 C4          -4.5550     1.3410    -0.5510 c6         1 23V       0.142300
     12 O4          -5.9450     1.5160    -0.6770 oh         1 23V      -0.714000
     13 C5          -4.2150    -0.0930    -0.9590 c6         1 23V       0.179300
     14 O5          -2.8320    -0.3200    -0.7800 os         1 23V      -0.456000
     15 C6          -4.5450    -0.3580    -2.4120 c3         1 23V       0.172600
     16 O6          -4.3440     2.9450     1.1750 oh         1 23V      -0.665000
     17 C7          -0.5880    -1.7850     0.9450 cs         1 23V       0.493400
     18 C8           2.8000    -1.1710     0.3810 ce         1 23V       0.411800
     19 C9           3.7220    -0.1340    -0.0720 ca         1 23V      -0.127900
     20 C10          5.0830    -0.4320    -0.0910 ca         1 23V      -0.084000
     21 C11          5.9860     0.5290    -0.5150 ca         1 23V       0.116000
     22 C12          5.5650     1.7840    -0.9220 ca         1 23V      -0.086000
     23 C13          4.2050     2.0730    -0.9000 ca         1 23V      -0.107000
     24 C14          3.2870     1.1280    -0.4810 ca         1 23V      -0.074000
     25 H1          -2.9770    -0.8950     1.2000 h2         1 23V       0.107700
     26 HN1         -0.3540     0.0970     0.2840 hn         1 23V       0.333500
     27 H2          -2.0240     1.9090     0.4280 h1         1 23V       0.050700
     28 HN2          1.1310    -2.8570     1.1100 hn         1 23V       0.350500
     29 HO2         -1.3520     1.3520     2.5130 ho         1 23V       0.517000
     30 H3          -4.6860     0.9350     1.5420 h1         1 23V       0.061700
     31 HO3         -4.5570    -1.8760    -3.6080 ho         1 23V       0.504000
     32 H4          -4.0090     2.0290    -1.2160 h1         1 23V       0.051700
     33 HO4         -6.1570     2.4210    -0.4230 ho         1 23V       0.525000
     34 H5          -4.7940    -0.7850    -0.3260 h1         1 23V       0.072700
     35 H6          -3.9310     0.3010    -3.0420 h1         1 23V       0.034700
     36 H6A         -5.5910    -0.0820    -2.5820 h1         1 23V       0.034700
     37 HO6         -4.2520     3.0750     2.1240 ho         1 23V       0.466000
     38 H8           3.2330    -2.1300     0.6670 h4         1 23V      -0.001200
     39 H10          5.4320    -1.4060     0.2260 ha         1 23V       0.131000
     40 H12          6.2800     2.5260    -1.2510 ha         1 23V       0.134000
     41 H13          3.8670     3.0500    -1.2180 ha         1 23V       0.123000
     42 H14          2.2320     1.3670    -0.4720 ha         1 23V       0.128000
@<TRIPOS>BOND
     1     1     2 1   
     2     1     5 1   
     3     1    14 1   
     4     1    25 1   
     5     2    17 1   
     6     2    26 1   
     7     3    17 2   
     8     4    21 1   
     9     5     7 1   
    10     5     8 1   
    11     5    27 1   
    12     6     9 1   
    13     6    17 1   
    14     6    28 1   
    15     7    29 1   
    16     8    11 1   
    17     8    16 1   
    18     8    30 1   
    19     9    18 2   
    20    10    15 1   
    21    10    31 1   
    22    11    12 1   
    23    11    13 1   
    24    11    32 1   
    25    12    33 1   
    26    13    14 1   
    27    13    15 1   
    28    13    34 1   
    29    15    35 1   
    30    15    36 1   
    31    16    37 1   
    32    18    19 1   
    33    18    38 1   
    34    19    20 ar  
    35    19    24 ar  
    36    20    21 ar  
    37    20    39 1   
    38    21    22 ar  
    39    22    23 ar  
    40    22    40 1   
    41    23    24 ar  
    42    23    41 1   
    43    24    42 1   
@<TRIPOS>SUBSTRUCTURE
     1 23V         1 TEMP              0 ****  ****    0 ROOT
