@<TRIPOS>MOLECULE
23V
   42    43     1     0     0
SMALL
No Charge or Current Charge


@<TRIPOS>ATOM
      1 C1          -2.2540    -0.4110     0.4750 c6         1 23V       0.298700
      2 N1          -0.9250    -0.9570     0.2240 ns         1 23V      -0.429900
      3 S1          -1.5800    -3.5120     0.7270 s          1 23V      -0.610400
      4 Cl1          6.5910     1.8490     1.7730 cl         1 23V      -0.193000
      5 C2          -2.1860     1.0920     0.9120 c6         1 23V       0.102300
      6 N2           0.7240    -2.4980    -0.1870 ns         1 23V      -0.226900
      7 O2          -1.5030     1.2730     2.1760 oh         1 23V      -0.713000
      8 C3          -3.6330     1.6510     1.0200 c6         1 23V       0.139300
      9 N3           1.6210    -1.5090    -0.5780 n2         1 23V      -0.485300
     10 O3          -4.9560    -1.7150    -2.5120 oh         1 23V      -0.704000
     11 C4          -4.3990     1.4480    -0.3190 c6         1 23V       0.142300
     12 O4          -5.7460     1.9400    -0.1860 oh         1 23V      -0.714000
     13 C5          -4.3530    -0.0620    -0.7130 c6         1 23V       0.179300
     14 O5          -2.9710    -0.5100    -0.7730 os         1 23V      -0.456000
     15 C6          -5.0240    -0.3340    -2.1000 c3         1 23V       0.172600
     16 O6          -3.6010     3.0410     1.3860 oh         1 23V      -0.665000
     17 C7          -0.5710    -2.2740     0.2280 cs         1 23V       0.493400
     18 C8           2.5590    -1.1400     0.2430 ce         1 23V       0.411800
     19 C9           3.4990    -0.0240    -0.0810 ca         1 23V      -0.127900
     20 C10          4.4810     0.3490     0.8620 ca         1 23V      -0.084000
     21 C11          5.3740     1.3970     0.5850 ca         1 23V       0.116000
     22 C12          5.2990     2.0860    -0.6360 ca         1 23V      -0.086000
     23 C13          4.3260     1.7240    -1.5830 ca         1 23V      -0.107000
     24 C14          3.4300     0.6760    -1.3080 ca         1 23V      -0.074000
     25 H1          -2.7580    -1.0060     1.2540 h2         1 23V       0.107700
     26 HN1         -0.2240    -0.3350    -0.1590 hn         1 23V       0.333500
     27 H2          -1.6600     1.6510     0.1220 h1         1 23V       0.050700
     28 HN2          0.9980    -3.4790    -0.2080 hn         1 23V       0.350500
     29 HO2         -0.5980     0.8900     2.0880 ho         1 23V       0.517000
     30 H3          -4.1560     1.0770     1.8020 h1         1 23V       0.061700
     31 HO3         -5.3400    -1.7650    -3.4180 ho         1 23V       0.504000
     32 H4          -3.8750     2.0180    -1.1020 h1         1 23V       0.051700
     33 HO4         -5.6600     2.7730     0.3390 ho         1 23V       0.525000
     34 H5          -4.8870    -0.6540     0.0460 h1         1 23V       0.072700
     35 H6          -4.5320     0.3050    -2.8470 h1         1 23V       0.034700
     36 H6A         -6.0740    -0.0150    -2.0430 h1         1 23V       0.034700
     37 HO6         -2.8600     3.1080     2.0340 ho         1 23V       0.466000
     38 H8           2.6820    -1.6210     1.2160 h4         1 23V      -0.001200
     39 H10          4.5530    -0.1730     1.8140 ha         1 23V       0.131000
     40 H12          5.9930     2.8960    -0.8460 ha         1 23V       0.134000
     41 H13          4.2660     2.2560    -2.5300 ha         1 23V       0.123000
     42 H14          2.6840     0.4100    -2.0550 ha         1 23V       0.128000
@<TRIPOS>BOND
     1     1     2 1   
     2     1     5 1   
     3     1    14 1   
     4     1    25 1   
     5     2    17 1   
     6     2    26 1   
     7     3    17 2   
     8     4    21 1   
     9     5     7 1   
    10     5     8 1   
    11     5    27 1   
    12     6     9 1   
    13     6    17 1   
    14     6    28 1   
    15     7    29 1   
    16     8    11 1   
    17     8    16 1   
    18     8    30 1   
    19     9    18 2   
    20    10    15 1   
    21    10    31 1   
    22    11    12 1   
    23    11    13 1   
    24    11    32 1   
    25    12    33 1   
    26    13    14 1   
    27    13    15 1   
    28    13    34 1   
    29    15    35 1   
    30    15    36 1   
    31    16    37 1   
    32    18    19 1   
    33    18    38 1   
    34    19    20 ar  
    35    19    24 ar  
    36    20    21 ar  
    37    20    39 1   
    38    21    22 ar  
    39    22    23 ar  
    40    22    40 1   
    41    23    24 ar  
    42    23    41 1   
    43    24    42 1   
@<TRIPOS>SUBSTRUCTURE
     1 23V         1 TEMP              0 ****  ****    0 ROOT
