@<TRIPOS>MOLECULE
23W
   16    15     1     0     0
SMALL
abcg2


@<TRIPOS>ATOM
      1 CAB          2.6940    -0.8370    -0.0690 c3         1 23W       0.152900
      2 OAF          1.2700    -0.7350    -0.0460 os         1 23W      -0.446100
      3 CAH          0.7390     0.4770     0.0260 c          1 23W       0.596300
      4 OAC          1.3950     1.4890     0.0780 o          1 23W      -0.487000
      5 CAG         -0.7500     0.4240     0.0340 ce         1 23W      -0.189400
      6 CAA         -1.4170     1.5750     0.0760 c2         1 23W      -0.211000
      7 CAE         -1.4110    -0.9250    -0.0080 c3         1 23W       0.211800
      8 OAD         -2.8040    -0.7670     0.0090 oh         1 23W      -0.664000
      9 H1           3.1170    -0.3040    -0.9210 h1         1 23W       0.048700
     10 H2           3.1350    -0.4520     0.8510 h1         1 23W       0.048700
     11 H3           2.9150    -1.8960    -0.1600 h1         1 23W       0.048700
     12 H4          -2.4970     1.6120     0.0830 ha         1 23W       0.186500
     13 H5          -0.8980     2.5230     0.1040 ha         1 23W       0.186500
     14 H6          -1.0760    -1.4570    -0.9080 h1         1 23W       0.035200
     15 H7          -1.0620    -1.5180     0.8470 h1         1 23W       0.035200
     16 H8          -3.2000    -1.6430    -0.0320 ho         1 23W       0.449000
@<TRIPOS>BOND
     1     1     2 1   
     2     1     9 1   
     3     1    10 1   
     4     1    11 1   
     5     2     3 1   
     6     3     4 2   
     7     3     5 1   
     8     5     6 2   
     9     5     7 1   
    10     6    12 1   
    11     6    13 1   
    12     7     8 1   
    13     7    14 1   
    14     7    15 1   
    15     8    16 1   
@<TRIPOS>SUBSTRUCTURE
     1 23W         1 TEMP              0 ****  ****    0 ROOT
