@<TRIPOS>MOLECULE
23W
   16    15     1     0     0
SMALL
No Charge or Current Charge


@<TRIPOS>ATOM
      1 CAB          2.7240    -0.8910    -0.0660 c3         1 23W       0.152900
      2 OAF          1.2900    -0.7690    -0.0440 os         1 23W      -0.446100
      3 CAH          0.7480     0.4910     0.0170 c          1 23W       0.596300
      4 OAC          1.4160     1.5160     0.0550 o          1 23W      -0.487000
      5 CAG         -0.7590     0.4750     0.0340 ce         1 23W      -0.189400
      6 CAA         -1.4600     1.6410     0.0930 c2         1 23W      -0.211000
      7 CAE         -1.4240    -0.9010    -0.0180 c3         1 23W       0.211800
      8 OAD         -2.8560    -0.8290     0.0020 oh         1 23W      -0.664000
      9 H1           3.1480    -0.3790    -0.9410 h1         1 23W       0.048700
     10 H2           3.1680    -0.4580     0.8390 h1         1 23W       0.048700
     11 H3           3.0170    -1.9470    -0.1160 h1         1 23W       0.048700
     12 H4          -2.5490     1.6710     0.1070 ha         1 23W       0.186500
     13 H5          -0.9630     2.6110     0.1300 ha         1 23W       0.186500
     14 H6          -1.0930    -1.4160    -0.9310 h1         1 23W       0.035200
     15 H7          -1.0720    -1.4940     0.8380 h1         1 23W       0.035200
     16 H8          -3.1850    -1.7550    -0.0350 ho         1 23W       0.449000
@<TRIPOS>BOND
     1     1     2 1   
     2     1     9 1   
     3     1    10 1   
     4     1    11 1   
     5     2     3 1   
     6     3     4 2   
     7     3     5 1   
     8     5     6 2   
     9     5     7 1   
    10     6    12 1   
    11     6    13 1   
    12     7     8 1   
    13     7    14 1   
    14     7    15 1   
    15     8    16 1   
@<TRIPOS>SUBSTRUCTURE
     1 23W         1 TEMP              0 ****  ****    0 ROOT
