@<TRIPOS>MOLECULE
23X
   83    85     1     0     0
SMALL
No Charge or Current Charge


@<TRIPOS>ATOM
      1 C27          4.9940    -2.6800     1.2800 c          1 23X       0.607100
      2 O27          6.0670    -2.1690     0.9930 o          1 23X      -0.615100
      3 C28          4.8890    -3.9200     2.1570 c3         1 23X      -0.177100
      4 N27          3.7900    -2.1820     0.8430 ns         1 23X      -0.487900
      5 C22          3.6130    -1.0040    -0.0410 c3         1 23X       0.027700
      6 C21          2.4670    -0.0940     0.5060 c          1 23X       0.595100
      7 O22          1.9570    -0.2570     1.6080 o          1 23X      -0.605100
      8 C23          3.4370    -1.4200    -1.5400 c3         1 23X      -0.065700
      9 C25          2.1400    -2.2500    -1.7700 c3         1 23X      -0.072400
     10 C24          4.6980    -2.1370    -2.0880 c3         1 23X      -0.086100
     11 C26          1.7980    -2.5220    -3.2490 c3         1 23X      -0.092100
     12 N11         -2.9740     0.8590    -0.6070 n3         1 23X      -0.785500
     13 C12         -3.8500     1.7590    -1.4020 c3         1 23X       0.236800
     14 C13         -4.8880     2.6450    -0.6420 c3         1 23X      -0.094700
     15 C14         -4.2500     3.5920     0.4100 c3         1 23X      -0.091100
     16 C15         -5.7600     3.4230    -1.6690 c3         1 23X      -0.067400
     17 C17         -0.4450     0.8710    -0.4230 c3         1 23X       0.137300
     18 C18         -6.9750     4.1660    -1.0710 c3         1 23X      -0.088100
     19 O18         -0.5640     0.5880    -1.8270 oh         1 23X      -0.647000
     20 C19          0.8280     1.7190    -0.1120 c3         1 23X       0.076700
     21 N20          2.0330     0.9080    -0.3370 ns         1 23X      -0.494900
     22 C32          0.9270     3.0640    -0.8830 c3         1 23X      -0.050100
     23 C33          3.2260     3.9310    -1.5600 ca         1 23X      -0.102500
     24 C34          4.4180     4.6210    -1.2750 ca         1 23X      -0.103000
     25 C35          4.6070     5.2060    -0.0120 ca         1 23X      -0.105000
     26 C36          3.6040     5.1010     0.9670 ca         1 23X      -0.103000
     27 C37          2.4130     4.4110     0.6820 ca         1 23X      -0.102500
     28 C38          2.2170     3.8210    -0.5820 ca         1 23X      -0.087300
     29 C1           1.1270    -3.4160     3.1850 cc         1 23X       0.389100
     30 N1           0.9360    -3.7570     1.9000 nd         1 23X      -0.535100
     31 S1           0.0320    -2.2310     3.9260 ss         1 23X       0.086800
     32 C2          -0.1680    -3.0410     1.4500 ca         1 23X       0.130400
     33 C3          -0.7640    -2.1930     2.3620 ca         1 23X      -0.220000
     34 C4          -1.8690    -1.3950     2.0310 ca         1 23X       0.032000
     35 C5          -2.3800    -1.4670     0.7170 ca         1 23X      -0.277500
     36 C6          -1.7920    -2.3490    -0.2200 ca         1 23X      -0.025000
     37 C7          -0.6850    -3.1390     0.1500 ca         1 23X      -0.073000
     38 S8          -3.7530    -0.4100     0.2330 sy         1 23X       1.182600
     39 O9          -4.5230    -1.1400    -0.7800 o          1 23X      -0.542000
     40 O10         -4.3800     0.1740     1.4230 o          1 23X      -0.542000
     41 H28          5.8680    -4.3300     2.4280 hc         1 23X       0.060367
     42 H28A         4.3030    -3.6700     3.0490 hc         1 23X       0.060367
     43 H28B         4.2550    -4.6630     1.6600 hc         1 23X       0.060367
     44 HN27         2.9560    -2.6690     1.1570 hn         1 23X       0.326500
     45 H22          4.5160    -0.3820     0.0250 h1         1 23X       0.093700
     46 H23          3.3430    -0.5000    -2.1290 hc         1 23X       0.048700
     47 H25          2.2180    -3.2090    -1.2420 hc         1 23X       0.039200
     48 H25A         1.2900    -1.7180    -1.3280 hc         1 23X       0.039200
     49 H24          4.6470    -2.2460    -3.1780 hc         1 23X       0.040033
     50 H24A         5.6010    -1.5600    -1.8590 hc         1 23X       0.040033
     51 H24B         4.8070    -3.1360    -1.6510 hc         1 23X       0.040033
     52 H26          1.7450    -1.5840    -3.8150 hc         1 23X       0.036700
     53 H26A         2.5460    -3.1730    -3.7180 hc         1 23X       0.036700
     54 H26B         0.8250    -3.0210    -3.3260 hc         1 23X       0.036700
     55 H12         -3.2200     2.4270    -2.0050 h1         1 23X       0.061200
     56 H12A        -4.4060     1.1490    -2.1270 h1         1 23X       0.061200
     57 H13         -5.5670     1.9720    -0.1060 hc         1 23X       0.066700
     58 H14         -5.0100     4.1910     0.9210 hc         1 23X       0.036367
     59 H14A        -3.7300     3.0230     1.1880 hc         1 23X       0.036367
     60 H14B        -3.5330     4.2750    -0.0610 hc         1 23X       0.036367
     61 H15         -5.1340     4.1430    -2.2110 hc         1 23X       0.038700
     62 H15A        -6.1390     2.7170    -2.4190 hc         1 23X       0.038700
     63 H16         -1.7640     2.5580    -0.1970 h1         1 23X       0.060200
     64 H16A        -1.8560     1.4280     1.1430 h1         1 23X       0.060200
     65 H17         -0.3260    -0.0730     0.1210 h1         1 23X       0.095700
     66 H18         -7.6030     4.5710    -1.8740 hc         1 23X       0.035033
     67 H18A        -7.5900     3.4860    -0.4690 hc         1 23X       0.035033
     68 H18B        -6.6610     5.0050    -0.4400 hc         1 23X       0.035033
     69 HO18        -1.5380     0.4910    -1.9490 ho         1 23X       0.438000
     70 H19          0.7980     1.9640     0.9590 h1         1 23X       0.089700
     71 HN20         2.4970     0.9870    -1.2330 hn         1 23X       0.322500
     72 H32          0.8480     2.8720    -1.9600 hc         1 23X       0.048200
     73 H32A         0.0730     3.6990    -0.6250 hc         1 23X       0.048200
     74 H33          3.0910     3.4800    -2.5400 ha         1 23X       0.106500
     75 H34          5.1930     4.7020    -2.0330 ha         1 23X       0.116500
     76 H35          5.5290     5.7400     0.2090 ha         1 23X       0.114000
     77 H36          3.7490     5.5540     1.9450 ha         1 23X       0.116500
     78 H37          1.6420     4.3350     1.4460 ha         1 23X       0.106500
     79 H4          -2.3040    -0.7260     2.7720 ha         1 23X       0.147000
     80 H6          -2.1770    -2.4120    -1.2370 ha         1 23X       0.139000
     81 H7          -0.2270    -3.8130    -0.5700 ha         1 23X       0.138000
     82 C16         -1.7900     1.4900     0.0480 c3         1 23X       0.189800
     83 H1           1.9170    -3.8260     3.8010 h5         1 23X       0.060800
@<TRIPOS>BOND
     1     1     2 2   
     2     1     3 1   
     3     1     4 1   
     4     3    41 1   
     5     3    42 1   
     6     3    43 1   
     7     4     5 1   
     8     4    44 1   
     9     5     6 1   
    10     5     8 1   
    11     5    45 1   
    12     6     7 2   
    13     6    21 1   
    14     8     9 1   
    15     8    10 1   
    16     8    46 1   
    17     9    11 1   
    18     9    47 1   
    19     9    48 1   
    20    10    49 1   
    21    10    50 1   
    22    10    51 1   
    23    11    52 1   
    24    11    53 1   
    25    11    54 1   
    26    12    13 1   
    27    12    38 1   
    28    12    82 1   
    29    13    14 1   
    30    13    55 1   
    31    13    56 1   
    32    14    15 1   
    33    14    16 1   
    34    14    57 1   
    35    15    58 1   
    36    15    59 1   
    37    15    60 1   
    38    16    18 1   
    39    16    61 1   
    40    16    62 1   
    41    17    19 1   
    42    17    20 1   
    43    17    65 1   
    44    17    82 1   
    45    18    66 1   
    46    18    67 1   
    47    18    68 1   
    48    19    69 1   
    49    20    21 1   
    50    20    22 1   
    51    20    70 1   
    52    21    71 1   
    53    22    28 1   
    54    22    72 1   
    55    22    73 1   
    56    23    24 ar  
    57    23    28 ar  
    58    23    74 1   
    59    24    25 ar  
    60    24    75 1   
    61    25    26 ar  
    62    25    76 1   
    63    26    27 ar  
    64    26    77 1   
    65    27    28 ar  
    66    27    78 1   
    67    29    30 2   
    68    29    31 1   
    69    29    83 1   
    70    30    32 1   
    71    31    33 1   
    72    32    33 ar  
    73    32    37 ar  
    74    33    34 ar  
    75    34    35 ar  
    76    34    79 1   
    77    35    36 ar  
    78    35    38 1   
    79    36    37 ar  
    80    36    80 1   
    81    37    81 1   
    82    38    39 2   
    83    38    40 2   
    84    63    82 1   
    85    64    82 1   
@<TRIPOS>SUBSTRUCTURE
     1 23X         1 TEMP              0 ****  ****    0 ROOT
