@<TRIPOS>MOLECULE
23Y
   77    82     1     0     0
SMALL
No Charge or Current Charge


@<TRIPOS>ATOM
      1 CG1          1.0020     0.9260     0.5520 ca         1 23Y       0.155100
      2 CG9          2.1180     0.0870     0.5200 ca         1 23Y      -0.194000
      3 CG8          1.9080    -1.3080     0.4370 ca         1 23Y       0.166100
      4 OG2          1.0820     2.2880     0.6430 os         1 23Y      -0.319100
      5 CG3         -0.2750     2.7560     0.3510 c5         1 23Y       0.218600
      6 CG5         -0.2820     0.4310     0.5220 ca         1 23Y      -0.195300
      7 CG6         -0.5260    -0.9530     0.4460 ca         1 23Y       0.042200
      8 CG7          0.5930    -1.8140     0.4010 ca         1 23Y      -0.171000
      9 CG4         -1.2740     1.5580     0.6050 c5         1 23Y       0.014900
     10 CB1         -0.3130     3.8900     2.6480 ca         1 23Y      -0.049500
     11 CB2         -0.7050     4.9410     3.4950 ca         1 23Y      -0.179500
     12 CB3         -1.4660     6.0050     2.9910 ca         1 23Y       0.146100
     13 OB3         -1.8400     7.0180     3.8210 oh         1 23Y      -0.532100
     14 CB4         -1.8390     6.0200     1.6390 ca         1 23Y      -0.179500
     15 CB5         -1.4480     4.9700     0.7890 ca         1 23Y      -0.049500
     16 CB6         -0.6800     3.8970     1.2850 ca         1 23Y      -0.143300
     17 CC1         -3.6310     2.0270    -0.2330 ca         1 23Y      -0.175500
     18 CC2         -4.6000     2.0700    -1.2450 ca         1 23Y       0.179100
     19 OC2         -5.8640     2.4760    -0.9540 oh         1 23Y      -0.530100
     20 CC3         -4.2730     1.6970    -2.5540 ca         1 23Y      -0.305000
     21 CC4         -2.9690     1.2800    -2.8460 ca         1 23Y       0.179100
     22 OC4         -2.6440     0.9170    -4.1150 oh         1 23Y      -0.530100
     23 CC5         -1.9970     1.2350    -1.8370 ca         1 23Y      -0.175500
     24 CC6         -2.3160     1.6090    -0.5150 ca         1 23Y      -0.009300
     25 CD1         -1.9180    -1.4870     0.4220 ce         1 23Y      -0.165200
     26 CD2         -2.3610    -2.6990    -0.0190 cf         1 23Y      -0.130200
     27 CE1         -6.1550    -2.9850     0.2280 ca         1 23Y      -0.179500
     28 CE2         -6.3480    -4.3130    -0.1820 ca         1 23Y       0.145100
     29 OE2         -7.6020    -4.8410    -0.2410 oh         1 23Y      -0.532100
     30 CE3         -5.2450    -5.1010    -0.5360 ca         1 23Y      -0.179500
     31 CE4         -3.9470    -4.5660    -0.4800 ca         1 23Y      -0.056000
     32 CE5         -3.7380    -3.2340    -0.0650 ca         1 23Y      -0.094800
     33 CE6         -4.8570    -2.4460     0.2870 ca         1 23Y      -0.056000
     34 CF5          5.9760    -0.6130    -0.9030 c6         1 23Y       0.176300
     35 OF           4.6260    -1.1490    -0.8380 os         1 23Y      -0.459000
     36 CF1          4.3190    -1.8060     0.4100 c6         1 23Y       0.364300
     37 OF1          2.9410    -2.2240     0.4100 os         1 23Y      -0.348100
     38 CF2          5.2540    -3.0490     0.5800 c6         1 23Y       0.115300
     39 OF2          4.9890    -3.7900     1.7980 oh         1 23Y      -0.721000
     40 CF3          6.7310    -2.5660     0.5490 c6         1 23Y       0.137300
     41 OF3          7.6250    -3.6860     0.6710 oh         1 23Y      -0.663000
     42 CF4          7.0130    -1.7740    -0.7630 c6         1 23Y       0.144300
     43 OF4          8.3720    -1.2960    -0.7580 oh         1 23Y      -0.717000
     44 CF6          6.1330     0.1710    -2.2490 c3         1 23Y       0.171600
     45 OF6          5.1590     1.2230    -2.4160 oh         1 23Y      -0.711000
     46 HCG9         3.1090     0.5270     0.5520 ha         1 23Y       0.162000
     47 HCG3        -0.2940     3.0770    -0.7000 h1         1 23Y       0.082700
     48 HCG7         0.4530    -2.8890     0.3550 ha         1 23Y       0.125000
     49 HCG4        -1.7290     1.6020     1.6020 hc         1 23Y       0.081700
     50 HCB1         0.2740     3.0680     3.0520 ha         1 23Y       0.119500
     51 HCB2        -0.4170     4.9280     4.5430 ha         1 23Y       0.122000
     52 HOB3        -2.3610     7.6670     3.3010 ho         1 23Y       0.465000
     53 HCB4        -2.4320     6.8390     1.2390 ha         1 23Y       0.122000
     54 HCB5        -1.7480     4.9880    -0.2570 ha         1 23Y       0.119500
     55 HCC1        -3.9040     2.3220     0.7770 ha         1 23Y       0.138000
     56 HOC2        -6.3900     2.4410    -1.7800 ho         1 23Y       0.464500
     57 HCC3        -5.0260     1.7310    -3.3370 ha         1 23Y       0.113000
     58 HOC4        -3.4460     1.0110    -4.6700 ho         1 23Y       0.464500
     59 HCC5        -0.9920     0.9050    -2.0850 ha         1 23Y       0.138000
     60 HCD1        -2.6550    -0.7860     0.8070 ha         1 23Y       0.179000
     61 HCD2        -1.6120    -3.3870    -0.4120 ha         1 23Y       0.171000
     62 HCE1        -7.0040    -2.3640     0.5020 ha         1 23Y       0.121000
     63 HOE2        -8.2410    -4.1520     0.0400 ho         1 23Y       0.465000
     64 HCE3        -5.3940    -6.1300    -0.8560 ha         1 23Y       0.121000
     65 HCE4        -3.1010    -5.1910    -0.7580 ha         1 23Y       0.115500
     66 HCE6        -4.7360    -1.4140     0.6010 ha         1 23Y       0.115500
     67 HCF5         6.1140     0.1000    -0.0770 h1         1 23Y       0.060700
     68 HCF1         4.4880    -1.1140     1.2490 h2         1 23Y       0.048700
     69 HCF2         5.0900    -3.7010    -0.2920 h1         1 23Y       0.069700
     70 HOF2         4.0190    -3.9740     1.8120 ho         1 23Y       0.525000
     71 HCF3         6.8790    -1.8830     1.4010 h1         1 23Y       0.053700
     72 HOF3         7.1860    -4.2850     1.3200 ho         1 23Y       0.466000
     73 HCF4         6.8670    -2.4590    -1.6120 h1         1 23Y       0.058700
     74 HOF4         8.9000    -2.0400    -0.3770 ho         1 23Y       0.526000
     75 HF61         7.1470     0.5930    -2.2830 h1         1 23Y       0.038200
     76 HF62         6.0540    -0.5510    -3.0730 h1         1 23Y       0.038200
     77 HCF6         5.2980     1.6030    -3.3150 ho         1 23Y       0.506000
@<TRIPOS>BOND
     1     1     2 ar  
     2     1     4 1   
     3     1     6 ar  
     4     2     3 ar  
     5     2    46 1   
     6     3     8 ar  
     7     3    37 1   
     8     4     5 1   
     9     5     9 1   
    10     5    16 1   
    11     5    47 1   
    12     6     7 ar  
    13     6     9 1   
    14     7     8 ar  
    15     7    25 1   
    16     8    48 1   
    17     9    24 1   
    18     9    49 1   
    19    10    11 ar  
    20    10    16 ar  
    21    10    50 1   
    22    11    12 ar  
    23    11    51 1   
    24    12    13 1   
    25    12    14 ar  
    26    13    52 1   
    27    14    15 ar  
    28    14    53 1   
    29    15    16 ar  
    30    15    54 1   
    31    17    18 ar  
    32    17    24 ar  
    33    17    55 1   
    34    18    19 1   
    35    18    20 ar  
    36    19    56 1   
    37    20    21 ar  
    38    20    57 1   
    39    21    22 1   
    40    21    23 ar  
    41    22    58 1   
    42    23    24 ar  
    43    23    59 1   
    44    25    26 2   
    45    25    60 1   
    46    26    32 1   
    47    26    61 1   
    48    27    28 ar  
    49    27    33 ar  
    50    27    62 1   
    51    28    29 1   
    52    28    30 ar  
    53    29    63 1   
    54    30    31 ar  
    55    30    64 1   
    56    31    32 ar  
    57    31    65 1   
    58    32    33 ar  
    59    33    66 1   
    60    34    35 1   
    61    34    42 1   
    62    34    44 1   
    63    34    67 1   
    64    35    36 1   
    65    36    37 1   
    66    36    38 1   
    67    36    68 1   
    68    38    39 1   
    69    38    40 1   
    70    38    69 1   
    71    39    70 1   
    72    40    41 1   
    73    40    42 1   
    74    40    71 1   
    75    41    72 1   
    76    42    43 1   
    77    42    73 1   
    78    43    74 1   
    79    44    45 1   
    80    44    75 1   
    81    44    76 1   
    82    45    77 1   
@<TRIPOS>SUBSTRUCTURE
     1 23Y         1 TEMP              0 ****  ****    0 ROOT
