@<TRIPOS>MOLECULE
23Y
   77    82     1     0     0
SMALL
abcg2


@<TRIPOS>ATOM
      1 CG1          0.7880     1.0580    -0.2360 ca         1 23Y       0.155100
      2 CG9          1.9290     0.2800    -0.3210 ca         1 23Y      -0.194000
      3 CG8          1.7420    -1.0990    -0.2010 ca         1 23Y       0.166100
      4 OG2          0.7970     2.4010    -0.3300 os         1 23Y      -0.319100
      5 CG3         -0.5320     2.9000    -0.0930 c5         1 23Y       0.218600
      6 CG5         -0.4780     0.5300    -0.0620 ca         1 23Y      -0.195300
      7 CG6         -0.6600    -0.8460     0.0360 ca         1 23Y       0.042200
      8 CG7          0.4810    -1.6540    -0.0240 ca         1 23Y      -0.171000
      9 CG4         -1.4750     1.6520    -0.0510 c5         1 23Y       0.014900
     10 CB1          0.0520     3.2540     2.3410 ca         1 23Y      -0.049500
     11 CB2         -0.0240     3.9830     3.5140 ca         1 23Y      -0.179500
     12 CB3         -0.7240     5.1900     3.5440 ca         1 23Y       0.146100
     13 OB3         -0.7670     5.8600     4.7120 oh         1 23Y      -0.532100
     14 CB4         -1.3400     5.6510     2.3850 ca         1 23Y      -0.179500
     15 CB5         -1.2500     4.9100     1.2140 ca         1 23Y      -0.049500
     16 CB6         -0.5620     3.7050     1.1730 ca         1 23Y      -0.143300
     17 CC1         -3.7760     1.9880    -0.9610 ca         1 23Y      -0.175500
     18 CC2         -4.6880     1.9990    -2.0140 ca         1 23Y       0.179100
     19 OC2         -5.9570     2.3490    -1.7340 oh         1 23Y      -0.530100
     20 CC3         -4.2810     1.6550    -3.2990 ca         1 23Y      -0.305000
     21 CC4         -2.9540     1.2990    -3.5230 ca         1 23Y       0.179100
     22 OC4         -2.5090     0.9570    -4.7480 oh         1 23Y      -0.530100
     23 CC5         -2.0380     1.2790    -2.4760 ca         1 23Y      -0.175500
     24 CC6         -2.4570     1.6270    -1.1980 ca         1 23Y      -0.009300
     25 CD1         -2.0110    -1.3740     0.1940 ce         1 23Y      -0.165200
     26 CD2         -2.3580    -2.6680     0.2420 cf         1 23Y      -0.130200
     27 CE1         -6.1200    -2.9340     0.5120 ca         1 23Y      -0.179500
     28 CE2         -6.2780    -4.3130     0.6610 ca         1 23Y       0.145100
     29 OE2         -7.4840    -4.8930     0.8000 oh         1 23Y      -0.532100
     30 CE3         -5.1520    -5.1320     0.6630 ca         1 23Y      -0.179500
     31 CE4         -3.8950    -4.5710     0.5220 ca         1 23Y      -0.056000
     32 CE5         -3.7120    -3.1920     0.3800 ca         1 23Y      -0.094800
     33 CE6         -4.8570    -2.3900     0.3740 ca         1 23Y      -0.056000
     34 CF5          5.9250    -0.4200    -0.6290 c6         1 23Y       0.176300
     35 OF           4.6460    -0.9310    -0.9530 os         1 23Y      -0.459000
     36 CF1          4.0450    -1.5920     0.1220 c6         1 23Y       0.364300
     37 OF1          2.7700    -1.9890    -0.2660 os         1 23Y      -0.348100
     38 CF2          4.8420    -2.8480     0.4660 c6         1 23Y       0.115300
     39 OF2          4.3250    -3.5010     1.5960 oh         1 23Y      -0.721000
     40 CF3          6.2790    -2.4410     0.7780 c6         1 23Y       0.137300
     41 OF3          7.1170    -3.5580     0.9490 oh         1 23Y      -0.663000
     42 CF4          6.8630    -1.5940    -0.3490 c6         1 23Y       0.144300
     43 OF4          8.1230    -1.0800    -0.0010 oh         1 23Y      -0.717000
     44 CF6          6.3830     0.4420    -1.7840 c3         1 23Y       0.171600
     45 OF6          5.4910     1.5230    -1.9100 oh         1 23Y      -0.711000
     46 HCG9         2.8960     0.7270    -0.5050 ha         1 23Y       0.162000
     47 HCG3        -0.7900     3.5440    -0.9370 h1         1 23Y       0.082700
     48 HCG7         0.4020    -2.7300     0.0670 ha         1 23Y       0.125000
     49 HCG4        -2.0440     1.6670     0.8830 hc         1 23Y       0.081700
     50 HCB1         0.6010     2.3200     2.3510 ha         1 23Y       0.119500
     51 HCB2         0.4620     3.6230     4.4120 ha         1 23Y       0.122000
     52 HOB3        -1.2790     6.6710     4.6160 ho         1 23Y       0.465000
     53 HCB4        -1.8840     6.5890     2.3890 ha         1 23Y       0.122000
     54 HCB5        -1.7290     5.2880     0.3190 ha         1 23Y       0.119500
     55 HCC1        -4.1010     2.2600     0.0370 ha         1 23Y       0.138000
     56 HOC2        -6.4980     2.3350    -2.5320 ho         1 23Y       0.464500
     57 HCC3        -4.9930     1.6590    -4.1190 ha         1 23Y       0.113000
     58 HOC4        -3.2190     1.0220    -5.3960 ho         1 23Y       0.464500
     59 HCC5        -1.0140     0.9840    -2.6660 ha         1 23Y       0.138000
     60 HCD1        -2.7900    -0.6220     0.2650 ha         1 23Y       0.179000
     61 HCD2        -1.5850    -3.4270     0.1750 ha         1 23Y       0.171000
     62 HCE1        -6.9870    -2.2840     0.4990 ha         1 23Y       0.121000
     63 HOE2        -8.1830    -4.2300     0.7830 ho         1 23Y       0.465000
     64 HCE3        -5.2630    -6.2030     0.7730 ha         1 23Y       0.121000
     65 HCE4        -3.0300    -5.2240     0.5270 ha         1 23Y       0.115500
     66 HCE6        -4.7760    -1.3160     0.2560 ha         1 23Y       0.115500
     67 HCF5         5.8630     0.2060     0.2760 h1         1 23Y       0.060700
     68 HCF1         3.9910    -0.9270     1.0020 h2         1 23Y       0.048700
     69 HCF2         4.8420    -3.5020    -0.4180 h1         1 23Y       0.069700
     70 HOF2         3.5040    -3.9400     1.3520 ho         1 23Y       0.525000
     71 HCF3         6.2660    -1.8200     1.6890 h1         1 23Y       0.053700
     72 HOF3         6.9070    -3.9730     1.7910 ho         1 23Y       0.466000
     73 HCF4         6.9230    -2.2120    -1.2600 h1         1 23Y       0.058700
     74 HOF4         8.6990    -1.8210     0.2190 ho         1 23Y       0.526000
     75 HF61         7.4040     0.7790    -1.5800 h1         1 23Y       0.038200
     76 HF62         6.4200    -0.1700    -2.6970 h1         1 23Y       0.038200
     77 HCF6         5.8480     2.1280    -2.5670 ho         1 23Y       0.506000
@<TRIPOS>BOND
     1     1     2 ar  
     2     1     4 1   
     3     1     6 ar  
     4     2     3 ar  
     5     2    46 1   
     6     3     8 ar  
     7     3    37 1   
     8     4     5 1   
     9     5     9 1   
    10     5    16 1   
    11     5    47 1   
    12     6     7 ar  
    13     6     9 1   
    14     7     8 ar  
    15     7    25 1   
    16     8    48 1   
    17     9    24 1   
    18     9    49 1   
    19    10    11 ar  
    20    10    16 ar  
    21    10    50 1   
    22    11    12 ar  
    23    11    51 1   
    24    12    13 1   
    25    12    14 ar  
    26    13    52 1   
    27    14    15 ar  
    28    14    53 1   
    29    15    16 ar  
    30    15    54 1   
    31    17    18 ar  
    32    17    24 ar  
    33    17    55 1   
    34    18    19 1   
    35    18    20 ar  
    36    19    56 1   
    37    20    21 ar  
    38    20    57 1   
    39    21    22 1   
    40    21    23 ar  
    41    22    58 1   
    42    23    24 ar  
    43    23    59 1   
    44    25    26 2   
    45    25    60 1   
    46    26    32 1   
    47    26    61 1   
    48    27    28 ar  
    49    27    33 ar  
    50    27    62 1   
    51    28    29 1   
    52    28    30 ar  
    53    29    63 1   
    54    30    31 ar  
    55    30    64 1   
    56    31    32 ar  
    57    31    65 1   
    58    32    33 ar  
    59    33    66 1   
    60    34    35 1   
    61    34    42 1   
    62    34    44 1   
    63    34    67 1   
    64    35    36 1   
    65    36    37 1   
    66    36    38 1   
    67    36    68 1   
    68    38    39 1   
    69    38    40 1   
    70    38    69 1   
    71    39    70 1   
    72    40    41 1   
    73    40    42 1   
    74    40    71 1   
    75    41    72 1   
    76    42    43 1   
    77    42    73 1   
    78    43    74 1   
    79    44    45 1   
    80    44    75 1   
    81    44    76 1   
    82    45    77 1   
@<TRIPOS>SUBSTRUCTURE
     1 23Y         1 TEMP              0 ****  ****    0 ROOT
