@<TRIPOS>MOLECULE
23Z
   85    89     1     0     0
SMALL
No Charge or Current Charge


@<TRIPOS>ATOM
      1 C1           0.7450    -6.4040    -0.1810 c          1 23Z       0.611100
      2 O2           1.7970    -7.0260    -0.2360 o          1 23Z      -0.603100
      3 N3           0.4600    -5.5550     0.9130 n          1 23Z      -0.416800
      4 C4           1.4120    -5.3840     2.0530 c6         1 23Z       0.099000
      5 C5           2.0020    -3.9520     2.0970 c6         1 23Z      -0.036100
      6 C6           0.8800    -2.9680     1.8960 cc         1 23Z      -0.103300
      7 C7          -0.3480    -3.2860     1.4090 cd         1 23Z      -0.223300
      8 C8          -0.7550    -4.6870     1.0020 c6         1 23Z       0.191300
      9 C9          -1.0890    -2.0830     1.3120 cd         1 23Z       0.311500
     10 N10         -0.3760    -1.0360     1.7000 nc         1 23Z      -0.533800
     11 N11          0.8410    -1.5890     2.0620 na         1 23Z       0.161800
     12 C12          1.9250    -0.7250     2.5580 c3         1 23Z       0.078600
     13 C13          2.7620    -0.0770     1.4320 c3         1 23Z       0.152300
     14 O14          3.5720    -1.0420     0.7540 oh         1 23Z      -0.665000
     15 C15          3.7500     0.9970     1.9510 c3         1 23Z       0.128800
     16 N16          4.8840     1.2400     1.0090 n3         1 23Z      -0.748600
     17 C17          5.9870     1.9980     1.6570 c6         1 23Z       0.169800
     18 C18          7.2150     2.1310     0.7260 c6         1 23Z      -0.073900
     19 C19          6.8460     2.8080    -0.6320 c6         1 23Z      -0.085700
     20 C20          5.6360     2.0390    -1.2510 c6         1 23Z      -0.073900
     21 C21          4.4610     1.9150    -0.2520 c6         1 23Z       0.169800
     22 C22          8.0750     2.9760    -1.6150 c3         1 23Z       0.191000
     23 C23         -2.4650    -1.9210     0.7960 ca         1 23Z      -0.059500
     24 C24         -3.4710    -2.8540     1.1040 ca         1 23Z      -0.118000
     25 C25         -4.7820    -2.6740     0.6360 ca         1 23Z      -0.051000
     26 C26         -5.1320    -1.5420    -0.1360 ca         1 23Z      -0.189300
     27 C27         -4.1290    -0.5750    -0.4130 ca         1 23Z      -0.068000
     28 C28         -2.8150    -0.7750     0.0550 ca         1 23Z      -0.116000
     29 S29         -4.5070     0.9030    -1.3710 ss         1 23Z      -0.044000
     30 C30         -3.4530     2.2300    -0.6200 c3         1 23Z      -0.080400
     31 C31         -3.7880     3.6380    -1.1390 c          1 23Z       0.588900
     32 O32         -4.6770     3.8220    -1.9660 o          1 23Z      -0.507100
     33 N33         -3.0250     4.7220    -0.6240 n          1 23Z       0.018200
     34 C34         -3.1710     6.0580    -0.9700 cc         1 23Z      -0.166500
     35 C35         -2.2660     6.8270    -0.2780 cd         1 23Z      -0.164500
     36 C36         -1.5100     5.9320     0.5460 cd         1 23Z      -0.164500
     37 C37         -1.9970     4.6680     0.3110 cc         1 23Z      -0.166500
     38 C38         -6.5800    -1.3680    -0.6360 c3         1 23Z       0.357300
     39 F39         -7.3910    -2.3900    -0.2760 f          1 23Z      -0.108000
     40 F40         -7.1500    -0.2430    -0.1460 f          1 23Z      -0.108000
     41 F41         -6.6420    -1.2940    -1.9850 f          1 23Z      -0.108000
     42 O42          8.6170     1.6980    -1.9530 oh         1 23Z      -0.658000
     43 C43         -0.2900    -6.5650    -1.2970 c3         1 23Z      -0.177100
     44 C44          7.6740     3.6610    -2.9470 c3         1 23Z      -0.102600
     45 C45          9.2280     3.7940    -0.9780 c3         1 23Z      -0.102600
     46 H4           0.8680    -5.5740     2.9900 h1         1 23Z       0.065700
     47 H4A          2.2290    -6.1180     2.0070 h1         1 23Z       0.065700
     48 H5           2.5210    -3.7890     3.0510 hc         1 23Z       0.073200
     49 H5A          2.7510    -3.8400     1.3020 hc         1 23Z       0.073200
     50 H8          -1.2950    -4.6400     0.0480 h1         1 23Z       0.053700
     51 H8A         -1.4360    -5.1160     1.7500 h1         1 23Z       0.053700
     52 H12          1.4740     0.0680     3.1680 h1         1 23Z       0.070200
     53 H12A         2.5790    -1.3120     3.2130 h1         1 23Z       0.070200
     54 H13          2.0800     0.4050     0.7180 h1         1 23Z       0.051700
     55 HO14         4.3920    -0.5050     0.5860 ho         1 23Z       0.480000
     56 H15          3.2030     1.9280     2.1520 h1         1 23Z       0.044200
     57 H15A         4.1490     0.6460     2.9130 h1         1 23Z       0.044200
     58 H17          5.6410     3.0030     1.9420 h1         1 23Z       0.034450
     59 H17A         6.3040     1.4920     2.5810 h1         1 23Z       0.034450
     60 H18          7.9800     2.7110     1.2560 hc         1 23Z       0.053200
     61 H18A         7.6410     1.1340     0.5510 hc         1 23Z       0.053200
     62 H19          6.5050     3.8290    -0.4070 hc         1 23Z       0.048700
     63 H20          5.2640     2.5530    -2.1460 hc         1 23Z       0.053200
     64 H20A         5.9400     1.0330    -1.5680 hc         1 23Z       0.053200
     65 H21          3.6520     1.3560    -0.7420 h1         1 23Z       0.034450
     66 H21A         4.0690     2.9190    -0.0320 h1         1 23Z       0.034450
     67 H24         -3.2480    -3.7200     1.7200 ha         1 23Z       0.123000
     68 H25         -5.5250    -3.4260     0.8910 ha         1 23Z       0.132000
     69 H28         -2.0410    -0.0490    -0.1760 ha         1 23Z       0.129000
     70 H30         -3.5940     2.2270     0.4670 h1         1 23Z       0.096700
     71 H30A        -2.3990     2.0340    -0.8460 h1         1 23Z       0.096700
     72 H34         -3.9320     6.3160    -1.6970 h4         1 23Z       0.157500
     73 H35         -2.1490     7.9050    -0.3460 ha         1 23Z       0.136000
     74 H36         -0.7060     6.1980     1.2270 ha         1 23Z       0.136000
     75 H37         -1.7100     3.7080     0.7240 h4         1 23Z       0.157500
     76 HO42         7.8560     1.1150    -2.1540 ho         1 23Z       0.441000
     77 H43         -1.2720    -6.7800    -0.8610 hc         1 23Z       0.061700
     78 H43A        -0.4420    -5.5960    -1.7840 hc         1 23Z       0.061700
     79 H43B         0.0010    -7.3260    -2.0300 hc         1 23Z       0.061700
     80 H44          7.1860     4.6240    -2.7560 hc         1 23Z       0.042367
     81 H44A         8.5540     3.8490    -3.5740 hc         1 23Z       0.042367
     82 H44B         6.9880     3.0400    -3.5340 hc         1 23Z       0.042367
     83 H45          9.6780     3.2680    -0.1290 hc         1 23Z       0.042367
     84 H45A        10.0300     3.9750    -1.7050 hc         1 23Z       0.042367
     85 H45B         8.8660     4.7680    -0.6270 hc         1 23Z       0.042367
@<TRIPOS>BOND
     1     1     2 2   
     2     1     3 1   
     3     1    43 1   
     4     3     4 1   
     5     3     8 1   
     6     4     5 1   
     7     4    46 1   
     8     4    47 1   
     9     5     6 1   
    10     5    48 1   
    11     5    49 1   
    12     6     7 2   
    13     6    11 1   
    14     7     8 1   
    15     7     9 1   
    16     8    50 1   
    17     8    51 1   
    18     9    10 2   
    19     9    23 1   
    20    10    11 1   
    21    11    12 1   
    22    12    13 1   
    23    12    52 1   
    24    12    53 1   
    25    13    14 1   
    26    13    15 1   
    27    13    54 1   
    28    14    55 1   
    29    15    16 1   
    30    15    56 1   
    31    15    57 1   
    32    16    17 1   
    33    16    21 1   
    34    17    18 1   
    35    17    58 1   
    36    17    59 1   
    37    18    19 1   
    38    18    60 1   
    39    18    61 1   
    40    19    20 1   
    41    19    22 1   
    42    19    62 1   
    43    20    21 1   
    44    20    63 1   
    45    20    64 1   
    46    21    65 1   
    47    21    66 1   
    48    22    42 1   
    49    22    44 1   
    50    22    45 1   
    51    23    24 ar  
    52    23    28 ar  
    53    24    25 ar  
    54    24    67 1   
    55    25    26 ar  
    56    25    68 1   
    57    26    27 ar  
    58    26    38 1   
    59    27    28 ar  
    60    27    29 1   
    61    28    69 1   
    62    29    30 1   
    63    30    31 1   
    64    30    70 1   
    65    30    71 1   
    66    31    32 2   
    67    31    33 1   
    68    33    34 1   
    69    33    37 1   
    70    34    35 2   
    71    34    72 1   
    72    35    36 1   
    73    35    73 1   
    74    36    37 2   
    75    36    74 1   
    76    37    75 1   
    77    38    39 1   
    78    38    40 1   
    79    38    41 1   
    80    42    76 1   
    81    43    77 1   
    82    43    78 1   
    83    43    79 1   
    84    44    80 1   
    85    44    81 1   
    86    44    82 1   
    87    45    83 1   
    88    45    84 1   
    89    45    85 1   
@<TRIPOS>SUBSTRUCTURE
     1 23Z         1 TEMP              0 ****  ****    0 ROOT
