@<TRIPOS>MOLECULE
23Z
   85    89     1     0     0
SMALL
abcg2


@<TRIPOS>ATOM
      1 C1           1.2140    -6.1780     0.3070 c          1 23Z       0.611100
      2 O2           2.3170    -6.6880     0.4540 o          1 23Z      -0.603100
      3 N3           0.6560    -5.3970     1.2630 n          1 23Z      -0.416800
      4 C4           1.3830    -5.0890     2.4840 c6         1 23Z       0.099000
      5 C5           1.9270    -3.6610     2.4430 c6         1 23Z      -0.036100
      6 C6           0.8160    -2.7840     1.9890 cc         1 23Z      -0.103300
      7 C7          -0.3460    -3.2220     1.3990 cd         1 23Z      -0.223300
      8 C8          -0.5910    -4.6690     1.1060 c6         1 23Z       0.191300
      9 C9          -1.0870    -2.0460     1.1580 cd         1 23Z       0.311500
     10 N10         -0.4100    -0.9830     1.5720 nc         1 23Z      -0.533800
     11 N11          0.7260    -1.4430     2.0760 na         1 23Z       0.161800
     12 C12          1.7270    -0.5140     2.5470 c3         1 23Z       0.078600
     13 C13          2.5620     0.0480     1.4100 c3         1 23Z       0.152300
     14 O14          3.2510    -0.9990     0.7750 oh         1 23Z      -0.665000
     15 C15          3.5650     1.0730     1.9470 c3         1 23Z       0.128800
     16 N16          4.6010     1.2970     0.9580 n3         1 23Z      -0.748600
     17 C17          5.8540     1.7630     1.5260 c6         1 23Z       0.169800
     18 C18          6.9560     1.7790     0.4790 c6         1 23Z      -0.073900
     19 C19          6.5820     2.6500    -0.7210 c6         1 23Z      -0.085700
     20 C20          5.2140     2.2010    -1.2370 c6         1 23Z      -0.073900
     21 C21          4.1770     2.1680    -0.1250 c6         1 23Z       0.169800
     22 C22          7.6740     2.6780    -1.8180 c3         1 23Z       0.191000
     23 C23         -2.4030    -1.8760     0.5420 ca         1 23Z      -0.059500
     24 C24         -3.3020    -2.9300     0.4310 ca         1 23Z      -0.118000
     25 C25         -4.5400    -2.7270    -0.1560 ca         1 23Z      -0.051000
     26 C26         -4.9130    -1.4800    -0.6330 ca         1 23Z      -0.189300
     27 C27         -4.0160    -0.4020    -0.5260 ca         1 23Z      -0.068000
     28 C28         -2.7740    -0.6220     0.0520 ca         1 23Z      -0.116000
     29 S29         -4.4990     1.1770    -1.1560 ss         1 23Z      -0.044000
     30 C30         -3.2450     2.2600    -0.4400 c3         1 23Z      -0.080400
     31 C31         -3.6430     3.6790    -0.7600 c          1 23Z       0.588900
     32 O32         -4.6230     3.9530    -1.4050 o          1 23Z      -0.507100
     33 N33         -2.8010     4.6630    -0.2690 n          1 23Z       0.018200
     34 C34         -3.0060     6.0200    -0.4560 cc         1 23Z      -0.166500
     35 C35         -1.9900     6.6830     0.1520 cd         1 23Z      -0.164500
     36 C36         -1.1220     5.7070     0.7380 cd         1 23Z      -0.164500
     37 C37         -1.6400     4.4840     0.4670 cc         1 23Z      -0.166500
     38 C38         -6.2770    -1.2930    -1.2220 c3         1 23Z       0.357300
     39 F39         -6.9400    -2.4440    -1.3550 f          1 23Z      -0.108000
     40 F40         -7.0430    -0.4910    -0.4670 f          1 23Z      -0.108000
     41 F41         -6.2240    -0.7350    -2.4420 f          1 23Z      -0.108000
     42 O42          7.9500     1.3670    -2.2960 oh         1 23Z      -0.658000
     43 C43          0.4180    -6.4100    -0.9550 c3         1 23Z      -0.177100
     44 C44          7.2480     3.5770    -2.9810 c3         1 23Z      -0.102600
     45 C45          8.9930     3.2000    -1.2560 c3         1 23Z      -0.102600
     46 H4           0.6940    -5.1940     3.3270 h1         1 23Z       0.065700
     47 H4A          2.1850    -5.8070     2.6200 h1         1 23Z       0.065700
     48 H5           2.2880    -3.3760     3.4340 hc         1 23Z       0.073200
     49 H5A          2.7760    -3.5940     1.7590 hc         1 23Z       0.073200
     50 H8          -0.9740    -4.7960     0.0960 h1         1 23Z       0.053700
     51 H8A         -1.3450    -5.0900     1.7820 h1         1 23Z       0.053700
     52 H12          1.2180     0.2920     3.0760 h1         1 23Z       0.070200
     53 H12A         2.3670    -1.0320     3.2630 h1         1 23Z       0.070200
     54 H13          1.8770     0.5420     0.7050 h1         1 23Z       0.051700
     55 HO14         4.0890    -0.5930     0.4900 ho         1 23Z       0.480000
     56 H15          3.0450     1.9940     2.2480 h1         1 23Z       0.044200
     57 H15A         4.0410     0.6690     2.8460 h1         1 23Z       0.044200
     58 H17          5.7440     2.7730     1.9560 h1         1 23Z       0.034450
     59 H17A         6.1360     1.0990     2.3460 h1         1 23Z       0.034450
     60 H18          7.8700     2.1380     0.9560 hc         1 23Z       0.053200
     61 H18A         7.1500     0.7560     0.1460 hc         1 23Z       0.053200
     62 H19          6.4730     3.6830    -0.3640 hc         1 23Z       0.048700
     63 H20          4.8490     2.8630    -2.0240 hc         1 23Z       0.053200
     64 H20A         5.2790     1.1960    -1.6690 hc         1 23Z       0.053200
     65 H21          3.2280     1.8130    -0.5310 h1         1 23Z       0.034450
     66 H21A         3.9970     3.1920     0.2450 h1         1 23Z       0.034450
     67 H24         -3.0670    -3.9120     0.8180 ha         1 23Z       0.123000
     68 H25         -5.2200    -3.5640    -0.2240 ha         1 23Z       0.132000
     69 H28         -2.0510     0.1750     0.1280 ha         1 23Z       0.129000
     70 H30         -3.1880     2.1190     0.6410 h1         1 23Z       0.096700
     71 H30A        -2.2610     2.0560    -0.8670 h1         1 23Z       0.096700
     72 H34         -3.8580     6.3860    -1.0020 h4         1 23Z       0.157500
     73 H35         -1.8670     7.7540     0.1820 ha         1 23Z       0.136000
     74 H36         -0.2180     5.8970     1.2940 ha         1 23Z       0.136000
     75 H37         -1.2790     3.5050     0.7330 h4         1 23Z       0.157500
     76 HO42         7.1630     1.0300    -2.7360 ho         1 23Z       0.441000
     77 H43         -0.5870    -6.7800    -0.7520 hc         1 23Z       0.061700
     78 H43A         0.3200    -5.4910    -1.5350 hc         1 23Z       0.061700
     79 H43B         0.9370    -7.1420    -1.5690 hc         1 23Z       0.061700
     80 H44          7.0020     4.5810    -2.6310 hc         1 23Z       0.042367
     81 H44A         8.0520     3.6650    -3.7130 hc         1 23Z       0.042367
     82 H44B         6.3710     3.1890    -3.5020 hc         1 23Z       0.042367
     83 H45          9.3920     2.5560    -0.4720 hc         1 23Z       0.042367
     84 H45A         9.7450     3.2670    -2.0430 hc         1 23Z       0.042367
     85 H45B         8.8630     4.1970    -0.8350 hc         1 23Z       0.042367
@<TRIPOS>BOND
     1     1     2 2   
     2     1     3 1   
     3     1    43 1   
     4     3     4 1   
     5     3     8 1   
     6     4     5 1   
     7     4    46 1   
     8     4    47 1   
     9     5     6 1   
    10     5    48 1   
    11     5    49 1   
    12     6     7 2   
    13     6    11 1   
    14     7     8 1   
    15     7     9 1   
    16     8    50 1   
    17     8    51 1   
    18     9    10 2   
    19     9    23 1   
    20    10    11 1   
    21    11    12 1   
    22    12    13 1   
    23    12    52 1   
    24    12    53 1   
    25    13    14 1   
    26    13    15 1   
    27    13    54 1   
    28    14    55 1   
    29    15    16 1   
    30    15    56 1   
    31    15    57 1   
    32    16    17 1   
    33    16    21 1   
    34    17    18 1   
    35    17    58 1   
    36    17    59 1   
    37    18    19 1   
    38    18    60 1   
    39    18    61 1   
    40    19    20 1   
    41    19    22 1   
    42    19    62 1   
    43    20    21 1   
    44    20    63 1   
    45    20    64 1   
    46    21    65 1   
    47    21    66 1   
    48    22    42 1   
    49    22    44 1   
    50    22    45 1   
    51    23    24 ar  
    52    23    28 ar  
    53    24    25 ar  
    54    24    67 1   
    55    25    26 ar  
    56    25    68 1   
    57    26    27 ar  
    58    26    38 1   
    59    27    28 ar  
    60    27    29 1   
    61    28    69 1   
    62    29    30 1   
    63    30    31 1   
    64    30    70 1   
    65    30    71 1   
    66    31    32 2   
    67    31    33 1   
    68    33    34 1   
    69    33    37 1   
    70    34    35 2   
    71    34    72 1   
    72    35    36 1   
    73    35    73 1   
    74    36    37 2   
    75    36    74 1   
    76    37    75 1   
    77    38    39 1   
    78    38    40 1   
    79    38    41 1   
    80    42    76 1   
    81    43    77 1   
    82    43    78 1   
    83    43    79 1   
    84    44    80 1   
    85    44    81 1   
    86    44    82 1   
    87    45    83 1   
    88    45    84 1   
    89    45    85 1   
@<TRIPOS>SUBSTRUCTURE
     1 23Z         1 TEMP              0 ****  ****    0 ROOT
