@<TRIPOS>MOLECULE
240
   61    64     1     0     0
SMALL
No Charge or Current Charge


@<TRIPOS>ATOM
      1 OAD          3.3790    -0.2750    -3.4690 o          1 240      -0.708000
      2 CAY          3.1810    -0.6270    -2.3120 c          1 240       0.731000
      3 OAF          3.9160    -0.3010    -1.3880 o          1 240      -0.708000
      4 CBJ          1.9720    -1.5860    -2.0360 c3         1 240       0.016300
      5 CAC          0.6220    -0.9440    -2.4440 c3         1 240      -0.097100
      6 OAW          1.8710    -1.9570    -0.6350 os         1 240      -0.312100
      7 CBF          1.0480    -2.9700    -0.1740 ca         1 240       0.195100
      8 CAO          0.6980    -4.0710    -0.9870 ca         1 240      -0.215000
      9 CAK         -0.1150    -5.0970    -0.4800 ca         1 240      -0.076000
     10 CAJ         -0.5780    -5.0340     0.8420 ca         1 240      -0.187000
     11 CAN         -0.2350    -3.9450     1.6580 ca         1 240      -0.081000
     12 CBE          0.5740    -2.9050     1.1570 ca         1 240      -0.137300
     13 CAU          0.8990    -1.7020     2.0420 c3         1 240       0.050100
     14 CBG          0.2840    -0.4150     1.5330 cc         1 240      -0.069400
     15 CBA         -1.0490    -0.1500     1.2360 cd         1 240      -0.041600
     16 CAB         -2.1630    -1.1320     1.5410 c3         1 240      -0.029900
     17 CBH          0.9570     0.8440     1.3040 ca         1 240      -0.083800
     18 CAT          2.3090     1.1790     1.4930 ca         1 240      -0.018000
     19 CBC          2.7190     2.5110     1.2230 ca         1 240       0.059100
     20 OAX          4.0160     2.9630     1.4010 os         1 240      -0.373100
     21 CBL          5.0730     2.1800     1.9950 c3         1 240       0.512000
     22 FAG          6.2030     2.9120     2.1060 f          1 240      -0.117333
     23 FAI          4.7530     1.7590     3.2400 f          1 240      -0.117333
     24 FAH          5.3810     1.0920     1.2550 f          1 240      -0.117333
     25 CAR          1.7720     3.4480     0.7550 ca         1 240      -0.090000
     26 CAS          0.4220     3.0870     0.5720 ca         1 240      -0.127000
     27 CBI          0.0340     1.7710     0.8730 ca         1 240      -0.079000
     28 NBK         -1.2580     1.1670     0.7570 n          1 240      -0.104600
     29 CAZ         -2.4740     1.7790     0.3390 c          1 240       0.646700
     30 OAE         -2.6540     2.9870     0.4560 o          1 240      -0.541100
     31 CBD         -3.5200     0.9420    -0.3650 ca         1 240      -0.200600
     32 CAQ         -3.1540    -0.1310    -1.2060 ca         1 240      -0.019000
     33 CAM         -4.1390    -0.8780    -1.8720 ca         1 240      -0.192000
     34 CAP         -4.8840     1.2810    -0.2440 ca         1 240      -0.019000
     35 CAL         -5.8680     0.5310    -0.9120 ca         1 240      -0.192000
     36 CBB         -5.4960    -0.5590    -1.7270 ca         1 240       0.163100
     37 OAV         -6.4170    -1.3290    -2.4060 os         1 240      -0.338100
     38 CAA         -7.8320    -1.0840    -2.3240 c3         1 240       0.149900
     39 HBJ          2.1520    -2.4700    -2.6580 h1         1 240       0.028700
     40 HAC1         0.6360    -0.6520    -3.5000 hc         1 240       0.029367
     41 HAC2        -0.2070    -1.6480    -2.3050 hc         1 240       0.029367
     42 HAC3         0.4250    -0.0480    -1.8430 hc         1 240       0.029367
     43 HAO          1.0590    -4.1530    -2.0060 ha         1 240       0.122000
     44 HAK         -0.3800    -5.9440    -1.1090 ha         1 240       0.094000
     45 HAJ         -1.2070    -5.8300     1.2360 ha         1 240       0.095000
     46 HAN         -0.6080    -3.9060     2.6790 ha         1 240       0.091000
     47 HAU1         0.5550    -1.8760     3.0680 hc         1 240       0.058700
     48 HAU2         1.9870    -1.6000     2.1170 hc         1 240       0.058700
     49 HAB1        -3.1240    -0.6350     1.7080 hc         1 240       0.045033
     50 HAB2        -2.2840    -1.8630     0.7330 hc         1 240       0.045033
     51 HAB3        -1.9490    -1.6920     2.4580 hc         1 240       0.045033
     52 HAT          3.0070     0.4250     1.8390 ha         1 240       0.202000
     53 HAR          2.0880     4.4660     0.5400 ha         1 240       0.122000
     54 HAS         -0.2900     3.8220     0.2080 ha         1 240       0.128000
     55 HAQ         -2.1070    -0.3860    -1.3530 ha         1 240       0.136000
     56 HAM         -3.8480    -1.7080    -2.5110 ha         1 240       0.125500
     57 HAP         -5.1860     2.1210     0.3800 ha         1 240       0.136000
     58 HAL         -6.9090     0.8120    -0.7860 ha         1 240       0.125500
     59 HAA1        -8.3800    -1.8110    -2.9360 h1         1 240       0.040367
     60 HAA2        -8.1850    -1.1760    -1.2890 h1         1 240       0.040367
     61 HAA3        -8.0750    -0.0780    -2.6920 h1         1 240       0.040367
@<TRIPOS>BOND
     1     1     2 1   
     2     2     3 1   
     3     2     4 1   
     4     4     5 1   
     5     4     6 1   
     6     4    39 1   
     7     5    40 1   
     8     5    41 1   
     9     5    42 1   
    10     6     7 1   
    11     7     8 ar  
    12     7    12 ar  
    13     8     9 ar  
    14     8    43 1   
    15     9    10 ar  
    16     9    44 1   
    17    10    11 ar  
    18    10    45 1   
    19    11    12 ar  
    20    11    46 1   
    21    12    13 1   
    22    13    14 1   
    23    13    47 1   
    24    13    48 1   
    25    14    15 2   
    26    14    17 1   
    27    15    16 1   
    28    15    28 1   
    29    16    49 1   
    30    16    50 1   
    31    16    51 1   
    32    17    18 ar  
    33    17    27 ar  
    34    18    19 ar  
    35    18    52 1   
    36    19    20 1   
    37    19    25 ar  
    38    20    21 1   
    39    21    22 1   
    40    21    23 1   
    41    21    24 1   
    42    25    26 ar  
    43    25    53 1   
    44    26    27 ar  
    45    26    54 1   
    46    27    28 1   
    47    28    29 1   
    48    29    30 2   
    49    29    31 1   
    50    31    32 ar  
    51    31    34 ar  
    52    32    33 ar  
    53    32    55 1   
    54    33    36 ar  
    55    33    56 1   
    56    34    35 ar  
    57    34    57 1   
    58    35    36 ar  
    59    35    58 1   
    60    36    37 1   
    61    37    38 1   
    62    38    59 1   
    63    38    60 1   
    64    38    61 1   
@<TRIPOS>SUBSTRUCTURE
     1 240         1 TEMP              0 ****  ****    0 ROOT
