@<TRIPOS>MOLECULE
240
   61    64     1     0     0
SMALL
abcg2


@<TRIPOS>ATOM
      1 OAD          5.0960    -0.7740    -1.9690 o          1 240      -0.708000
      2 CAY          4.3750    -1.1710    -1.0330 c          1 240       0.731000
      3 OAF          4.6470    -1.1810     0.1780 o          1 240      -0.708000
      4 CBJ          3.0210    -1.7650    -1.4880 c3         1 240       0.016300
      5 CAC          2.2630    -0.8500    -2.4370 c3         1 240      -0.097100
      6 OAW          2.2300    -2.0450    -0.3420 os         1 240      -0.312100
      7 CBF          1.2420    -2.9510    -0.3770 ca         1 240       0.195100
      8 CAO          1.0250    -3.8520    -1.4180 ca         1 240      -0.215000
      9 CAK          0.0090    -4.7970    -1.3250 ca         1 240      -0.076000
     10 CAJ         -0.8000    -4.8540    -0.2040 ca         1 240      -0.187000
     11 CAN         -0.5910    -3.9390     0.8230 ca         1 240      -0.081000
     12 CBE          0.4050    -2.9770     0.7520 ca         1 240      -0.137300
     13 CAU          0.5650    -1.9470     1.8450 c3         1 240       0.050100
     14 CBG         -0.0160    -0.6190     1.4550 cc         1 240      -0.069400
     15 CBA         -1.3430    -0.3200     1.4260 cd         1 240      -0.041600
     16 CAB         -2.4720    -1.1710     1.8920 c3         1 240      -0.029900
     17 CBH          0.6970     0.5660     1.0650 ca         1 240      -0.083800
     18 CAT          2.0550     0.8380     0.9020 ca         1 240      -0.018000
     19 CBC          2.4040     2.1110     0.5100 ca         1 240       0.059100
     20 OAX          3.7470     2.4070     0.2670 os         1 240      -0.373100
     21 CBL          4.4980     2.7850     1.3000 c3         1 240       0.512000
     22 FAG          5.7180     3.0380     0.8450 f          1 240      -0.117333
     23 FAI          4.0400     3.8920     1.8970 f          1 240      -0.117333
     24 FAH          4.5960     1.8550     2.2530 f          1 240      -0.117333
     25 CAR          1.4640     3.1130     0.2660 ca         1 240      -0.090000
     26 CAS          0.1150     2.8510     0.4200 ca         1 240      -0.127000
     27 CBI         -0.2530     1.5740     0.8310 ca         1 240      -0.079000
     28 NBK         -1.5070     1.0080     1.0180 n          1 240      -0.104600
     29 CAZ         -2.7100     1.6740     0.7590 c          1 240       0.646700
     30 OAE         -2.8320     2.8470     1.0370 o          1 240      -0.541100
     31 CBD         -3.7620     0.9030     0.0750 ca         1 240      -0.200600
     32 CAQ         -3.4490    -0.0820    -0.8670 ca         1 240      -0.019000
     33 CAM         -4.4450    -0.7310    -1.5620 ca         1 240      -0.192000
     34 CAP         -5.0980     1.2270     0.2880 ca         1 240      -0.019000
     35 CAL         -6.1100     0.5650    -0.3850 ca         1 240      -0.192000
     36 CBB         -5.7880    -0.4210    -1.3200 ca         1 240       0.163100
     37 OAV         -6.6890    -1.1110    -2.0270 os         1 240      -0.338100
     38 CAA         -8.0660    -0.8380    -1.8390 c3         1 240       0.149900
     39 HBJ          3.2690    -2.7010    -2.0070 h1         1 240       0.028700
     40 HAC1         2.8500    -0.6630    -3.3330 hc         1 240       0.029367
     41 HAC2         1.3150    -1.2930    -2.7460 hc         1 240       0.029367
     42 HAC3         2.0450     0.1060    -1.9590 hc         1 240       0.029367
     43 HAO          1.6410    -3.8430    -2.3070 ha         1 240       0.122000
     44 HAK         -0.1410    -5.4900    -2.1430 ha         1 240       0.094000
     45 HAJ         -1.5860    -5.5930    -0.1260 ha         1 240       0.095000
     46 HAN         -1.2240    -3.9710     1.7020 ha         1 240       0.091000
     47 HAU1         0.0640    -2.3140     2.7440 hc         1 240       0.058700
     48 HAU2         1.6160    -1.8260     2.1140 hc         1 240       0.058700
     49 HAB1        -3.2700    -0.5820     2.3430 hc         1 240       0.045033
     50 HAB2        -2.9150    -1.7700     1.0960 hc         1 240       0.045033
     51 HAB3        -2.1080    -1.8610     2.6520 hc         1 240       0.045033
     52 HAT          2.8070     0.0700     1.0240 ha         1 240       0.202000
     53 HAR          1.7890     4.0920    -0.0580 ha         1 240       0.122000
     54 HAS         -0.6080     3.6310     0.2330 ha         1 240       0.128000
     55 HAQ         -2.4170    -0.3350    -1.0770 ha         1 240       0.136000
     56 HAM         -4.1970    -1.4820    -2.3010 ha         1 240       0.125500
     57 HAP         -5.3600     1.9940     1.0050 ha         1 240       0.136000
     58 HAL         -7.1370     0.8300    -0.1750 ha         1 240       0.125500
     59 HAA1        -8.6040    -1.5010    -2.5110 h1         1 240       0.040367
     60 HAA2        -8.3830    -1.0400    -0.8130 h1         1 240       0.040367
     61 HAA3        -8.3130     0.1960    -2.0900 h1         1 240       0.040367
@<TRIPOS>BOND
     1     1     2 1   
     2     2     3 1   
     3     2     4 1   
     4     4     5 1   
     5     4     6 1   
     6     4    39 1   
     7     5    40 1   
     8     5    41 1   
     9     5    42 1   
    10     6     7 1   
    11     7     8 ar  
    12     7    12 ar  
    13     8     9 ar  
    14     8    43 1   
    15     9    10 ar  
    16     9    44 1   
    17    10    11 ar  
    18    10    45 1   
    19    11    12 ar  
    20    11    46 1   
    21    12    13 1   
    22    13    14 1   
    23    13    47 1   
    24    13    48 1   
    25    14    15 2   
    26    14    17 1   
    27    15    16 1   
    28    15    28 1   
    29    16    49 1   
    30    16    50 1   
    31    16    51 1   
    32    17    18 ar  
    33    17    27 ar  
    34    18    19 ar  
    35    18    52 1   
    36    19    20 1   
    37    19    25 ar  
    38    20    21 1   
    39    21    22 1   
    40    21    23 1   
    41    21    24 1   
    42    25    26 ar  
    43    25    53 1   
    44    26    27 ar  
    45    26    54 1   
    46    27    28 1   
    47    28    29 1   
    48    29    30 2   
    49    29    31 1   
    50    31    32 ar  
    51    31    34 ar  
    52    32    33 ar  
    53    32    55 1   
    54    33    36 ar  
    55    33    56 1   
    56    34    35 ar  
    57    34    57 1   
    58    35    36 ar  
    59    35    58 1   
    60    36    37 1   
    61    37    38 1   
    62    38    59 1   
    63    38    60 1   
    64    38    61 1   
@<TRIPOS>SUBSTRUCTURE
     1 240         1 TEMP              0 ****  ****    0 ROOT
