@<TRIPOS>MOLECULE
241
   61    64     1     0     0
SMALL
No Charge or Current Charge


@<TRIPOS>ATOM
      1 CAA          3.2470     8.0400    -0.6230 c3         1 241       0.147900
      2 OAV          3.2500     6.6370    -0.3110 os         1 241      -0.304100
      3 CBC          2.1100     5.8630    -0.3880 ca         1 241       0.176100
      4 CAM          0.8580     6.3850    -0.7710 ca         1 241      -0.184500
      5 CAO         -0.2690     5.5460    -0.8310 ca         1 241      -0.030500
      6 CAN          2.2180     4.5040    -0.0620 ca         1 241      -0.184500
      7 CAP          1.0950     3.6620    -0.1200 ca         1 241      -0.030500
      8 CBF         -0.1590     4.1730    -0.5240 ca         1 241      -0.232600
      9 CAZ         -1.3910     3.2920    -0.5820 c          1 241       0.654700
     10 OAE         -2.5010     3.7750    -0.3810 o          1 241      -0.539100
     11 NBK         -1.2090     1.8930    -0.7190 n          1 241      -0.103600
     12 CBB         -0.4030     1.2540    -1.6820 cc         1 241       0.010400
     13 CAB          0.4320     1.9700    -2.7220 c3         1 241      -0.040900
     14 CBI         -1.9700     0.8900    -0.0480 ca         1 241      -0.069000
     15 CAR         -2.9260     1.0040     0.9720 ca         1 241      -0.101000
     16 CAQ         -3.5000    -0.1820     1.4750 ca         1 241      -0.097000
     17 CBE         -3.1210    -1.4490     0.9700 ca         1 241       0.051100
     18 OAX         -3.7280    -2.5610     1.5280 os         1 241      -0.397100
     19 CBL         -3.4150    -3.9210     1.1580 c3         1 241       0.509000
     20 FAI         -3.6910    -4.1710    -0.1430 f          1 241      -0.116000
     21 FAG         -2.1140    -4.2220     1.3740 f          1 241      -0.116000
     22 FAH         -4.1460    -4.7930     1.8870 f          1 241      -0.116000
     23 CAT         -2.1510    -1.5320    -0.0620 ca         1 241      -0.045000
     24 CBH         -1.5910    -0.3400    -0.5440 ca         1 241      -0.078800
     25 CBG         -0.5820    -0.1180    -1.5750 cd         1 241      -0.115400
     26 CAU          0.0900    -1.1960    -2.3990 c3         1 241       0.042100
     27 CBA          0.6460    -2.3500    -1.5700 ca         1 241      -0.051300
     28 CAS          1.5120    -2.0930    -0.4910 ca         1 241      -0.168000
     29 CAK          0.2880    -3.6800    -1.8620 ca         1 241      -0.178000
     30 CAJ          0.7800    -4.7360    -1.0790 ca         1 241      -0.075000
     31 CAL          1.6400    -4.4720    -0.0000 ca         1 241      -0.210000
     32 CBD          2.0170    -3.1430     0.2950 ca         1 241       0.180100
     33 OAW          2.8530    -2.8120     1.3460 os         1 241      -0.310100
     34 CBJ          3.5970    -3.7890     2.1240 c3         1 241       0.018300
     35 CAC          4.7590    -4.3140     1.2410 c3         1 241      -0.098100
     36 CAY          4.1330    -3.1890     3.4700 c          1 241       0.733000
     37 OAD          4.6500    -3.9570     4.2720 o          1 241      -0.714000
     38 OAF          3.9820    -1.9950     3.7030 o          1 241      -0.714000
     39 HAA1         2.9360     8.2080    -1.6620 h1         1 241       0.037033
     40 HAA2         2.5670     8.5860     0.0430 h1         1 241       0.037033
     41 HAA3         4.2540     8.4580    -0.4980 h1         1 241       0.037033
     42 HAM          0.7380     7.4350    -1.0230 ha         1 241       0.160500
     43 HAO         -1.2290     5.9670    -1.1280 ha         1 241       0.127000
     44 HAN          3.1800     4.1020     0.2450 ha         1 241       0.160500
     45 HAP          1.2080     2.6160     0.1600 ha         1 241       0.127000
     46 HAB1         1.4780     2.0430    -2.4050 hc         1 241       0.054700
     47 HAB2         0.4120     1.4330    -3.6770 hc         1 241       0.054700
     48 HAB3         0.0610     2.9800    -2.9270 hc         1 241       0.054700
     49 HAR         -3.2160     1.9720     1.3760 ha         1 241       0.139000
     50 HAQ         -4.2420    -0.1240     2.2680 ha         1 241       0.126000
     51 HAT         -1.8340    -2.4800    -0.4810 ha         1 241       0.138000
     52 HAU1        -0.6280    -1.5730    -3.1370 hc         1 241       0.046700
     53 HAU2         0.9130    -0.7690    -2.9840 hc         1 241       0.046700
     54 HAS          1.7940    -1.0710    -0.2540 ha         1 241       0.119000
     55 HAK         -0.3810    -3.8970    -2.6920 ha         1 241       0.095000
     56 HAJ          0.4920    -5.7600    -1.3060 ha         1 241       0.095000
     57 HAL          2.0000    -5.3060     0.5930 ha         1 241       0.122000
     58 HBJ          2.9470    -4.6250     2.4090 h1         1 241       0.032700
     59 HAC1         5.3290    -5.0840     1.7750 hc         1 241       0.028700
     60 HAC2         4.3900    -4.7580     0.3100 hc         1 241       0.028700
     61 HAC3         5.4470    -3.4980     0.9850 hc         1 241       0.028700
@<TRIPOS>BOND
     1     1     2 1   
     2     1    39 1   
     3     1    40 1   
     4     1    41 1   
     5     2     3 1   
     6     3     4 ar  
     7     3     6 ar  
     8     4     5 ar  
     9     4    42 1   
    10     5     8 ar  
    11     5    43 1   
    12     6     7 ar  
    13     6    44 1   
    14     7     8 ar  
    15     7    45 1   
    16     8     9 1   
    17     9    10 2   
    18     9    11 1   
    19    11    12 1   
    20    11    14 1   
    21    12    13 1   
    22    12    25 2   
    23    13    46 1   
    24    13    47 1   
    25    13    48 1   
    26    14    15 ar  
    27    14    24 ar  
    28    15    16 ar  
    29    15    49 1   
    30    16    17 ar  
    31    16    50 1   
    32    17    18 1   
    33    17    23 ar  
    34    18    19 1   
    35    19    20 1   
    36    19    21 1   
    37    19    22 1   
    38    23    24 ar  
    39    23    51 1   
    40    24    25 1   
    41    25    26 1   
    42    26    27 1   
    43    26    52 1   
    44    26    53 1   
    45    27    28 ar  
    46    27    29 ar  
    47    28    32 ar  
    48    28    54 1   
    49    29    30 ar  
    50    29    55 1   
    51    30    31 ar  
    52    30    56 1   
    53    31    32 ar  
    54    31    57 1   
    55    32    33 1   
    56    33    34 1   
    57    34    35 1   
    58    34    36 1   
    59    34    58 1   
    60    35    59 1   
    61    35    60 1   
    62    35    61 1   
    63    36    37 1   
    64    36    38 1   
@<TRIPOS>SUBSTRUCTURE
     1 241         1 TEMP              0 ****  ****    0 ROOT
