@<TRIPOS>MOLECULE
242
   48    51     1     0     0
SMALL
bcc


@<TRIPOS>ATOM
      1 C4           4.1110    -1.0270     2.7230 ca         1 242       0.507200
      2 C2           3.1400    -0.6940     1.7510 ca         1 242      -0.338600
      3 C3           2.7590     0.6640     1.7190 ca         1 242       0.485600
      4 N2           3.2940     1.5670     2.5630 nb         1 242      -0.790000
      5 C1           4.1890     1.1290     3.4230 ca         1 242       0.918900
      6 N3           4.6280    -0.1590     3.5380 nb         1 242      -0.757000
      7 C8           2.5690    -1.6290     0.8690 ca         1 242      -0.052000
      8 C9           1.6190    -1.2350    -0.0420 cp         1 242      -0.075000
      9 C10          1.2440     0.1310    -0.0780 ca         1 242      -0.080000
     10 C11          1.7900     1.0570     0.7680 ca         1 242      -0.199300
     11 N15          4.7530     2.0020     4.2720 nv         1 242      -0.961500
     12 C16          1.0200    -2.2040    -0.9880 cp         1 242      -0.042000
     13 C17          1.8480    -2.8860    -1.8710 ca         1 242      -0.062000
     14 C18          1.3370    -3.7900    -2.7970 ca         1 242      -0.164600
     15 C19         -0.0320    -4.0350    -2.8090 ca         1 242      -0.099000
     16 C20         -0.8590    -3.3800    -1.9110 ca         1 242      -0.140000
     17 C21         -0.3620    -2.4560    -0.9970 ca         1 242      -0.033300
     18 C25         -1.2960    -1.7840    -0.0340 c3         1 242      -0.053800
     19 C29          2.2930    -4.4850    -3.7060 c          1 242       0.693700
     20 O30          3.4450    -4.7000    -3.3730 o          1 242      -0.575100
     21 N31          1.7740    -4.8350    -4.9130 ns         1 242      -0.471100
     22 C32          2.3710    -5.5480    -5.9540 ca         1 242       0.074600
     23 C33          1.6270    -5.6760    -7.1250 ca         1 242      -0.145000
     24 C34          2.1320    -6.3770    -8.2110 ca         1 242      -0.166300
     25 C35          3.3860    -6.9660    -8.1490 ca         1 242      -0.107000
     26 C36          4.1210    -6.8390    -6.9800 ca         1 242      -0.109000
     27 C37          3.6350    -6.1400    -5.8870 ca         1 242      -0.122000
     28 C5           1.2780    -6.4840    -9.4360 c3         1 242       0.719200
     29 F3           1.8950    -7.1100   -10.4410 f          1 242      -0.234967
     30 F1           0.1430    -7.1560    -9.1890 f          1 242      -0.234967
     31 F2           0.9110    -5.2770    -9.8920 f          1 242      -0.234967
     32 H4           4.4560    -2.0550     2.8070 h4         1 242       0.024100
     33 H8           2.8810    -2.6660     0.9250 ha         1 242       0.139000
     34 H10          0.5130     0.4530    -0.8090 ha         1 242       0.135000
     35 H11          1.4920     2.0960     0.7190 ha         1 242       0.152000
     36 H151         5.3590     1.6730     5.0020 hn         1 242       0.448800
     37 H152         4.4240     2.9500     4.3130 hn         1 242       0.448800
     38 H17          2.9130    -2.6860    -1.8510 ha         1 242       0.156000
     39 H19         -0.4700    -4.7610    -3.4830 ha         1 242       0.133000
     40 H20         -1.9180    -3.6050    -1.9130 ha         1 242       0.136000
     41 H251        -0.9100    -1.8100     0.9850 hc         1 242       0.049367
     42 H252        -1.4530    -0.7350    -0.2890 hc         1 242       0.049367
     43 H253        -2.2720    -2.2680    -0.0390 hc         1 242       0.049367
     44 HN31         0.8550    -4.4790    -5.1240 hn         1 242       0.323500
     45 H33          0.6450    -5.2190    -7.1770 ha         1 242       0.140000
     46 H35          3.7950    -7.5180    -8.9830 ha         1 242       0.152000
     47 H36          5.1000    -7.2950    -6.9150 ha         1 242       0.141000
     48 H37          4.2390    -6.0650    -4.9990 ha         1 242       0.171000
@<TRIPOS>BOND
     1     1     2 ar  
     2     1     6 ar  
     3     1    32 1   
     4     2     3 ar  
     5     2     7 ar  
     6     3     4 ar  
     7     3    10 ar  
     8     4     5 ar  
     9     5     6 ar  
    10     5    11 1   
    11     7     8 ar  
    12     7    33 1   
    13     8     9 ar  
    14     8    12 1   
    15     9    10 ar  
    16     9    34 1   
    17    10    35 1   
    18    11    36 1   
    19    11    37 1   
    20    12    13 ar  
    21    12    17 ar  
    22    13    14 ar  
    23    13    38 1   
    24    14    15 ar  
    25    14    19 1   
    26    15    16 ar  
    27    15    39 1   
    28    16    17 ar  
    29    16    40 1   
    30    17    18 1   
    31    18    41 1   
    32    18    42 1   
    33    18    43 1   
    34    19    20 2   
    35    19    21 1   
    36    21    22 1   
    37    21    44 1   
    38    22    23 ar  
    39    22    27 ar  
    40    23    24 ar  
    41    23    45 1   
    42    24    25 ar  
    43    24    28 1   
    44    25    26 ar  
    45    25    46 1   
    46    26    27 ar  
    47    26    47 1   
    48    27    48 1   
    49    28    29 1   
    50    28    30 1   
    51    28    31 1   
@<TRIPOS>SUBSTRUCTURE
     1 242         1 TEMP              0 ****  ****    0 ROOT
