@<TRIPOS>MOLECULE
242
   48    51     1     0     0
SMALL
No Charge or Current Charge


@<TRIPOS>ATOM
      1 C4           4.1200    -1.2920     2.7650 ca         1 242       0.178900
      2 C2           3.1530    -0.7730     1.8820 ca         1 242      -0.208000
      3 C3           2.7560     0.5730     2.0510 ca         1 242       0.092000
      4 N2           3.2990     1.3220     3.0340 nb         1 242      -0.264000
      5 C1           4.2120     0.7270     3.8170 ca         1 242       0.392900
      6 N3           4.6560    -0.5370     3.7430 nb         1 242      -0.231000
      7 C8           2.5960    -1.5660     0.8630 ca         1 242      -0.034000
      8 C9           1.6190    -1.0360    -0.0120 cp         1 242      -0.075000
      9 C10          1.2350     0.3170     0.1570 ca         1 242      -0.062000
     10 C11          1.7940     1.1070     1.1770 ca         1 242      -0.116000
     11 N15          4.7440     1.4950     4.8000 nv         1 242      -1.071900
     12 C16          1.0380    -1.8780    -1.1000 cp         1 242      -0.042000
     13 C17          1.9090    -2.5050    -2.0230 ca         1 242      -0.044000
     14 C18          1.4300    -3.3080    -3.0820 ca         1 242      -0.164600
     15 C19          0.0320    -3.4840    -3.2060 ca         1 242      -0.081000
     16 C20         -0.8460    -2.8780    -2.2940 ca         1 242      -0.122000
     17 C21         -0.3630    -2.0820    -1.2390 ca         1 242      -0.033300
     18 C25         -1.3730    -1.4880    -0.2620 c3         1 242      -0.053800
     19 C29          2.4190    -3.9470    -4.0420 c          1 242       0.626700
     20 O30          3.6260    -3.7790    -3.9090 o          1 242      -0.575100
     21 N31          1.8630    -4.7200    -5.0560 ns         1 242      -0.145000
     22 C32          2.4360    -5.4620    -6.1270 ca         1 242      -0.018000
     23 C33          1.5530    -6.1600    -6.9740 ca         1 242      -0.127000
     24 C34          2.0290    -6.9250    -8.0610 ca         1 242      -0.166300
     25 C35          3.4180    -6.9730    -8.3030 ca         1 242      -0.089000
     26 C36          4.3070    -6.2810    -7.4660 ca         1 242      -0.091000
     27 C37          3.8230    -5.5300    -6.3810 ca         1 242      -0.104000
     28 C5           1.0480    -7.6690    -8.9780 c3         1 242       0.355300
     29 F3           1.6090    -8.7470    -9.5720 f          1 242      -0.113667
     30 F1          -0.0370    -8.1220    -8.3070 f          1 242      -0.113667
     31 F2           0.5940    -6.8660    -9.9660 f          1 242      -0.113667
     32 H4           4.4700    -2.3210     2.6910 h4         1 242       0.024100
     33 H8           2.9100    -2.6020     0.7490 ha         1 242       0.121000
     34 H10          0.5040     0.7570    -0.5160 ha         1 242       0.117000
     35 H11          1.4800     2.1430     1.2860 ha         1 242       0.134000
     36 H151         5.2530     1.0340     5.5510 hn         1 242       0.504000
     37 H152         4.2810     2.3700     5.0350 hn         1 242       0.504000
     38 H17          2.9800    -2.3470    -1.9100 ha         1 242       0.138000
     39 H19         -0.3960    -4.0900    -4.0010 ha         1 242       0.115000
     40 H20         -1.9170    -3.0360    -2.4070 ha         1 242       0.118000
     41 H251        -0.9870    -1.4820     0.7640 hc         1 242       0.049367
     42 H252        -1.6270    -0.4580    -0.5360 hc         1 242       0.049367
     43 H253        -2.3060    -2.0650    -0.2480 hc         1 242       0.049367
     44 HN31         0.8540    -4.7650    -5.0290 hn         1 242       0.157000
     45 H33          0.4820    -6.1030    -6.7850 ha         1 242       0.122000
     46 H35          3.8150    -7.5420    -9.1410 ha         1 242       0.134000
     47 H36          5.3760    -6.3250    -7.6590 ha         1 242       0.123000
     48 H37          4.5430    -5.0090    -5.7590 ha         1 242       0.153000
@<TRIPOS>BOND
     1     1     2 ar  
     2     1     6 ar  
     3     1    32 1   
     4     2     3 ar  
     5     2     7 ar  
     6     3     4 ar  
     7     3    10 ar  
     8     4     5 ar  
     9     5     6 ar  
    10     5    11 1   
    11     7     8 ar  
    12     7    33 1   
    13     8     9 ar  
    14     8    12 1   
    15     9    10 ar  
    16     9    34 1   
    17    10    35 1   
    18    11    36 1   
    19    11    37 1   
    20    12    13 ar  
    21    12    17 ar  
    22    13    14 ar  
    23    13    38 1   
    24    14    15 ar  
    25    14    19 1   
    26    15    16 ar  
    27    15    39 1   
    28    16    17 ar  
    29    16    40 1   
    30    17    18 1   
    31    18    41 1   
    32    18    42 1   
    33    18    43 1   
    34    19    20 2   
    35    19    21 1   
    36    21    22 1   
    37    21    44 1   
    38    22    23 ar  
    39    22    27 ar  
    40    23    24 ar  
    41    23    45 1   
    42    24    25 ar  
    43    24    28 1   
    44    25    26 ar  
    45    25    46 1   
    46    26    27 ar  
    47    26    47 1   
    48    27    48 1   
    49    28    29 1   
    50    28    30 1   
    51    28    31 1   
@<TRIPOS>SUBSTRUCTURE
     1 242         1 TEMP              0 ****  ****    0 ROOT
