@<TRIPOS>MOLECULE
243
   52    51     1     0     0
SMALL
No Charge or Current Charge


@<TRIPOS>ATOM
      1 OAS         -7.9610    -1.8460     2.2200 o          1 243      -0.744000
      2 CAA         -7.0660    -2.4470     1.6450 c          1 243       0.717000
      3 OAT         -6.6250    -3.5230     2.0210 o          1 243      -0.744000
      4 CAB         -6.4200    -1.7870     0.4130 c3         1 243      -0.203400
      5 CAC         -5.2330    -0.8930     0.8470 c3         1 243      -0.054400
      6 CAD         -4.5330    -0.1930    -0.3400 c3         1 243      -0.079400
      7 CAE         -3.3490     0.6990     0.0960 c3         1 243      -0.075400
      8 CAF         -2.6500     1.3990    -1.0910 c3         1 243      -0.075400
      9 CAG         -1.4670     2.2900    -0.6550 c3         1 243      -0.072400
     10 CAH         -0.7670     2.9910    -1.8390 c3         1 243      -0.051200
     11 CAI          0.3970     3.8570    -1.3950 c2         1 243      -0.179200
     12 CAJ          1.6480     3.4520    -1.0810 ce         1 243      -0.207000
     13 CAK          2.1180     2.0610    -1.1130 ce         1 243      -0.153000
     14 CAL          3.3780     1.7010    -0.7880 c2         1 243      -0.270200
     15 CAM          3.9170     0.2890    -0.7940 c3         1 243       0.205500
     16 OAU          4.0210    -0.1270    -2.1530 oh         1 243      -0.650000
     17 CAN          5.2980     0.1780    -0.1050 c3         1 243      -0.107400
     18 CAO          5.8230    -1.2720     0.0290 c3         1 243      -0.073400
     19 CAP          7.1810    -1.3570     0.7600 c3         1 243      -0.076400
     20 CAQ          7.7060    -2.8030     0.8950 c3         1 243      -0.075400
     21 CAR          9.0610    -2.8880     1.6240 c3         1 243      -0.088100
     22 HAB         -5.9950    -2.5490    -0.2520 hc         1 243       0.014200
     23 HABA        -7.1340    -1.1180    -0.0830 hc         1 243       0.014200
     24 HAC         -5.5930    -0.1320     1.5510 hc         1 243       0.038200
     25 HACA        -4.4990    -1.5040     1.3870 hc         1 243       0.038200
     26 HAD         -4.1700    -0.9530    -1.0430 hc         1 243       0.023700
     27 HADA        -5.2650     0.4200    -0.8800 hc         1 243       0.023700
     28 HAE         -3.7110     1.4590     0.8000 hc         1 243       0.034700
     29 HAEA        -2.6160     0.0860     0.6350 hc         1 243       0.034700
     30 HAF         -2.2880     0.6380    -1.7940 hc         1 243       0.032700
     31 HAFA        -3.3840     2.0110    -1.6300 hc         1 243       0.032700
     32 HAG         -1.8280     3.0510     0.0480 hc         1 243       0.039700
     33 HAGA        -0.7360     1.6780    -0.1130 hc         1 243       0.039700
     34 HAH         -0.4290     2.2390    -2.5630 hc         1 243       0.044700
     35 HAHA        -1.5030     3.6100    -2.3680 hc         1 243       0.044700
     36 HAI          0.1500     4.9190    -1.3360 ha         1 243       0.165000
     37 HAJ          2.3840     4.1990    -0.7750 ha         1 243       0.163000
     38 HAK          1.4010     1.2940    -1.4160 ha         1 243       0.182000
     39 HAL          4.1000     2.4590    -0.4810 ha         1 243       0.168000
     40 HAM          3.2120    -0.3600    -0.2530 h1         1 243       0.076700
     41 HOAU         4.3590     0.6500    -2.6460 ho         1 243       0.439000
     42 HAN          6.0320     0.7820    -0.6540 hc         1 243       0.041700
     43 HANA         5.2210     0.6140     0.8990 hc         1 243       0.041700
     44 HAO          5.0840    -1.8740     0.5720 hc         1 243       0.044700
     45 HAOA         5.9270    -1.7160    -0.9690 hc         1 243       0.044700
     46 HAP          7.9210    -0.7550     0.2170 hc         1 243       0.035200
     47 HAPA         7.0810    -0.9160     1.7590 hc         1 243       0.035200
     48 HAQ          6.9700    -3.4080     1.4390 hc         1 243       0.038200
     49 HAQA         7.8110    -3.2470    -0.1030 hc         1 243       0.038200
     50 HAR          9.3920    -3.9310     1.6950 hc         1 243       0.029700
     51 HARA         9.8290    -2.3200     1.0840 hc         1 243       0.029700
     52 HARB         8.9810    -2.4830     2.6400 hc         1 243       0.029700
@<TRIPOS>BOND
     1     1     2 1   
     2     2     3 1   
     3     2     4 1   
     4     4     5 1   
     5     4    22 1   
     6     4    23 1   
     7     5     6 1   
     8     5    24 1   
     9     5    25 1   
    10     6     7 1   
    11     6    26 1   
    12     6    27 1   
    13     7     8 1   
    14     7    28 1   
    15     7    29 1   
    16     8     9 1   
    17     8    30 1   
    18     8    31 1   
    19     9    10 1   
    20     9    32 1   
    21     9    33 1   
    22    10    11 1   
    23    10    34 1   
    24    10    35 1   
    25    11    12 2   
    26    11    36 1   
    27    12    13 1   
    28    12    37 1   
    29    13    14 2   
    30    13    38 1   
    31    14    15 1   
    32    14    39 1   
    33    15    16 1   
    34    15    17 1   
    35    15    40 1   
    36    16    41 1   
    37    17    18 1   
    38    17    42 1   
    39    17    43 1   
    40    18    19 1   
    41    18    44 1   
    42    18    45 1   
    43    19    20 1   
    44    19    46 1   
    45    19    47 1   
    46    20    21 1   
    47    20    48 1   
    48    20    49 1   
    49    21    50 1   
    50    21    51 1   
    51    21    52 1   
@<TRIPOS>SUBSTRUCTURE
     1 243         1 TEMP              0 ****  ****    0 ROOT
