@<TRIPOS>MOLECULE
243
   52    51     1     0     0
SMALL
abcg2


@<TRIPOS>ATOM
      1 OAS         -9.6460    -1.8800    -0.0790 o          1 243      -0.744000
      2 CAA         -8.7270    -1.2460     0.4830 c          1 243       0.717000
      3 OAT         -8.7520    -0.7890     1.6430 o          1 243      -0.744000
      4 CAB         -7.4560    -1.0210    -0.3540 c3         1 243      -0.203400
      5 CAC         -6.3490    -0.2140     0.3040 c3         1 243      -0.054400
      6 CAD         -5.1350    -0.0350    -0.6000 c3         1 243      -0.079400
      7 CAE         -4.0230     0.7880     0.0380 c3         1 243      -0.075400
      8 CAF         -2.8130     0.9690    -0.8690 c3         1 243      -0.075400
      9 CAG         -1.7220     1.8300    -0.2460 c3         1 243      -0.072400
     10 CAH         -0.5020     1.9960    -1.1590 c3         1 243      -0.051200
     11 CAI          0.4900     2.9570    -0.5900 c2         1 243      -0.179200
     12 CAJ          1.7060     2.6870    -0.0990 ce         1 243      -0.207000
     13 CAK          2.3460     1.3830    -0.0370 ce         1 243      -0.153000
     14 CAL          3.5460     1.1930     0.5180 c2         1 243      -0.270200
     15 CAM          4.2700    -0.1170     0.6260 c3         1 243       0.205500
     16 OAU          3.5870    -1.1830     0.0090 oh         1 243      -0.650000
     17 CAN          5.7100     0.0200     0.1260 c3         1 243      -0.107400
     18 CAO          6.5590    -1.2220     0.3610 c3         1 243      -0.073400
     19 CAP          8.0140    -1.0250    -0.0450 c3         1 243      -0.076400
     20 CAQ          8.8820    -2.2490     0.2190 c3         1 243      -0.075400
     21 CAR         10.3380    -2.0350    -0.1700 c3         1 243      -0.088100
     22 HAB         -7.0660    -2.0020    -0.6520 hc         1 243       0.014200
     23 HABA        -7.7470    -0.5400    -1.2960 hc         1 243       0.014200
     24 HAC         -6.7290     0.7700     0.5940 hc         1 243       0.038200
     25 HACA        -6.0380    -0.7010     1.2340 hc         1 243       0.038200
     26 HAD         -4.7420    -1.0180    -0.8840 hc         1 243       0.023700
     27 HADA        -5.4440     0.4450    -1.5360 hc         1 243       0.023700
     28 HAE         -4.4170     1.7720     0.3170 hc         1 243       0.034700
     29 HAEA        -3.7110     0.3120     0.9740 hc         1 243       0.034700
     30 HAF         -2.4010    -0.0130    -1.1270 hc         1 243       0.032700
     31 HAFA        -3.1310     1.4220    -1.8150 hc         1 243       0.032700
     32 HAG         -2.1320     2.8170    -0.0050 hc         1 243       0.039700
     33 HAGA        -1.4020     1.3910     0.7040 hc         1 243       0.039700
     34 HAH         -0.0570     1.0170    -1.3480 hc         1 243       0.044700
     35 HAHA        -0.8420     2.3730    -2.1300 hc         1 243       0.044700
     36 HAI          0.1570     3.9910    -0.5480 ha         1 243       0.165000
     37 HAJ          2.2830     3.5150     0.3030 ha         1 243       0.163000
     38 HAK          1.8130     0.5350    -0.4550 ha         1 243       0.182000
     39 HAL          4.0700     2.0430     0.9490 ha         1 243       0.168000
     40 HAM          4.3200    -0.3820     1.6910 h1         1 243       0.076700
     41 HOAU         3.5990    -1.0370    -0.9440 ho         1 243       0.439000
     42 HAN          5.7020     0.2770    -0.9410 hc         1 243       0.041700
     43 HANA         6.1690     0.8730     0.6360 hc         1 243       0.041700
     44 HAO          6.5140    -1.4900     1.4230 hc         1 243       0.044700
     45 HAOA         6.1400    -2.0710    -0.1860 hc         1 243       0.044700
     46 HAP          8.0660    -0.7660    -1.1080 hc         1 243       0.035200
     47 HAPA         8.4290    -0.1670     0.4950 hc         1 243       0.035200
     48 HAQ          8.8220    -2.5120     1.2800 hc         1 243       0.038200
     49 HAQA         8.4770    -3.1070    -0.3280 hc         1 243       0.038200
     50 HAR         10.9440    -2.9180     0.0350 hc         1 243       0.029700
     51 HARA        10.4340    -1.8060    -1.2340 hc         1 243       0.029700
     52 HARB        10.7730    -1.2000     0.3840 hc         1 243       0.029700
@<TRIPOS>BOND
     1     1     2 1   
     2     2     3 1   
     3     2     4 1   
     4     4     5 1   
     5     4    22 1   
     6     4    23 1   
     7     5     6 1   
     8     5    24 1   
     9     5    25 1   
    10     6     7 1   
    11     6    26 1   
    12     6    27 1   
    13     7     8 1   
    14     7    28 1   
    15     7    29 1   
    16     8     9 1   
    17     8    30 1   
    18     8    31 1   
    19     9    10 1   
    20     9    32 1   
    21     9    33 1   
    22    10    11 1   
    23    10    34 1   
    24    10    35 1   
    25    11    12 2   
    26    11    36 1   
    27    12    13 1   
    28    12    37 1   
    29    13    14 2   
    30    13    38 1   
    31    14    15 1   
    32    14    39 1   
    33    15    16 1   
    34    15    17 1   
    35    15    40 1   
    36    16    41 1   
    37    17    18 1   
    38    17    42 1   
    39    17    43 1   
    40    18    19 1   
    41    18    44 1   
    42    18    45 1   
    43    19    20 1   
    44    19    46 1   
    45    19    47 1   
    46    20    21 1   
    47    20    48 1   
    48    20    49 1   
    49    21    50 1   
    50    21    51 1   
    51    21    52 1   
@<TRIPOS>SUBSTRUCTURE
     1 243         1 TEMP              0 ****  ****    0 ROOT
