@<TRIPOS>MOLECULE
244
   31    33     1     0     0
SMALL
No Charge or Current Charge


@<TRIPOS>ATOM
      1 C1          28.2130    27.2660    11.9260 ca         1 244      -0.108000
      2 C2          26.8050    27.3990    11.8540 ca         1 244      -0.048300
      3 C3          26.2700    28.0040    10.7030 ca         1 244       0.039100
      4 C4          27.0870    28.4460     9.6900 ca         1 244      -0.059800
      5 C5          28.4790    28.3290     9.7320 ca         1 244      -0.154000
      6 C6          29.0430    27.7260    10.8750 ca         1 244       0.120100
      7 O9          24.9290    28.2190    10.4450 os         1 244      -0.183200
      8 C10         24.9260    28.8370     9.1960 cc         1 244       0.118900
      9 C11         26.2080    28.9870     8.7060 cd         1 244      -0.238200
     10 O12         30.3950    27.5820    10.9740 oh         1 244      -0.538100
     11 C13         25.9030    26.9040    12.9790 c3         1 244       0.043000
     12 C14         25.3670    25.5710    12.6830 c1         1 244       0.301900
     13 N17         24.9400    24.5060    12.4760 n1         1 244      -0.455000
     14 C18         23.6860    29.2250     8.5140 ca         1 244      -0.083800
     15 C19         22.4440    28.7830     9.0170 ca         1 244      -0.041000
     16 C20         21.2450    29.1450     8.3790 ca         1 244      -0.175500
     17 C21         21.2720    29.9520     7.2340 ca         1 244       0.150100
     18 C22         22.4990    30.4010     6.7250 ca         1 244      -0.175500
     19 C23         23.7010    30.0410     7.3600 ca         1 244      -0.041000
     20 O28         20.1030    30.2960     6.6240 oh         1 244      -0.532100
     21 H1          28.6700    26.8020    12.7970 ha         1 244       0.135000
     22 H5          29.0940    28.6890     8.9110 ha         1 244       0.123000
     23 H11         26.4950    29.4140     7.7510 ha         1 244       0.212000
     24 H12         30.8090    27.9520    10.1650 ho         1 244       0.464000
     25 H131        25.0650    27.5920    13.1360 hc         1 244       0.080700
     26 H132        26.4510    26.8570    13.9270 hc         1 244       0.080700
     27 H19         22.4030    28.1550     9.9040 ha         1 244       0.124000
     28 H20         20.2940    28.7970     8.7750 ha         1 244       0.126000
     29 H22         22.5310    31.0310     5.8390 ha         1 244       0.126000
     30 H23         24.6380    30.4090     6.9520 ha         1 244       0.124000
     31 H28         20.3130    30.8580     5.8470 ho         1 244       0.466000
@<TRIPOS>BOND
     1     1     2 ar  
     2     1     6 ar  
     3     1    21 1   
     4     2     3 ar  
     5     2    11 1   
     6     3     4 ar  
     7     3     7 1   
     8     4     5 ar  
     9     4     9 1   
    10     5     6 ar  
    11     5    22 1   
    12     6    10 1   
    13     7     8 1   
    14     8     9 2   
    15     8    14 1   
    16     9    23 1   
    17    10    24 1   
    18    11    12 1   
    19    11    25 1   
    20    11    26 1   
    21    12    13 3   
    22    14    15 ar  
    23    14    19 ar  
    24    15    16 ar  
    25    15    27 1   
    26    16    17 ar  
    27    16    28 1   
    28    17    18 ar  
    29    17    20 1   
    30    18    19 ar  
    31    18    29 1   
    32    19    30 1   
    33    20    31 1   
@<TRIPOS>SUBSTRUCTURE
     1 244         1 TEMP              0 ****  ****    0 ROOT
