@<TRIPOS>MOLECULE
245
   27    28     1     0     0
SMALL
abcg2


@<TRIPOS>ATOM
      1 CL7          5.2840     1.3490     0.7180 cl         1 245      -0.173000
      2 C1          -0.8680    -0.2000     0.1440 c          1 245       0.671100
      3 O1          -0.9680    -1.3920    -0.0670 o          1 245      -0.592100
      4 C3           1.6050    -0.0990     0.2900 ca         1 245       0.047000
      5 C4           1.9100    -1.4470     0.0680 ca         1 245      -0.193000
      6 C5           3.2390    -1.8240     0.0640 ca         1 245       0.371900
      7 N6           4.2630    -0.9970     0.2580 nb         1 245      -0.675000
      8 C7           3.9530     0.2610     0.4640 ca         1 245       0.470000
      9 C8           2.6750     0.7780     0.4940 ca         1 245      -0.230000
     10 N9          -1.9240     0.6580     0.2310 ns         1 245      -0.161000
     11 C10         -3.2770     0.3430     0.0540 ca         1 245      -0.017000
     12 C11         -3.8220    -0.9140     0.3190 ca         1 245      -0.140500
     13 C12         -5.1840    -1.1210     0.1450 ca         1 245      -0.085000
     14 C13         -6.0210    -0.0970    -0.2760 ca         1 245      -0.128000
     15 C14         -5.4770     1.1570    -0.5250 ca         1 245      -0.085000
     16 C15         -4.1180     1.3740    -0.3670 ca         1 245      -0.140500
     17 HN2          0.3110     1.4350     0.5090 hn         1 245       0.151000
     18 H4           1.1500    -2.1910    -0.0970 ha         1 245       0.163000
     19 H5           3.4920    -2.8630    -0.1060 h4         1 245       0.028100
     20 H8           2.5090     1.8330     0.6700 ha         1 245       0.133000
     21 HN9         -1.7250     1.6460     0.2890 hn         1 245       0.149000
     22 H11         -3.2060    -1.7280     0.6650 ha         1 245       0.125000
     23 H12         -5.5930    -2.1010     0.3540 ha         1 245       0.116000
     24 H13         -7.0810    -0.2710    -0.4040 ha         1 245       0.118000
     25 H14         -6.1100     1.9730    -0.8490 ha         1 245       0.116000
     26 H15         -3.7040     2.3540    -0.5730 ha         1 245       0.125000
     27 N2           0.3390     0.4430     0.3280 ns         1 245      -0.161000
@<TRIPOS>BOND
     1     1     8 1   
     2     2     3 2   
     3     2    10 1   
     4     2    27 1   
     5     4     5 ar  
     6     4     9 ar  
     7     4    27 1   
     8     5     6 ar  
     9     5    18 1   
    10     6     7 ar  
    11     6    19 1   
    12     7     8 ar  
    13     8     9 ar  
    14     9    20 1   
    15    10    11 1   
    16    10    21 1   
    17    11    12 ar  
    18    11    16 ar  
    19    12    13 ar  
    20    12    22 1   
    21    13    14 ar  
    22    13    23 1   
    23    14    15 ar  
    24    14    24 1   
    25    15    16 ar  
    26    15    25 1   
    27    16    26 1   
    28    17    27 1   
@<TRIPOS>SUBSTRUCTURE
     1 245         1 TEMP              0 ****  ****    0 ROOT
