@<TRIPOS>MOLECULE
245
   27    28     1     0     0
SMALL
No Charge or Current Charge


@<TRIPOS>ATOM
      1 Cl7          5.3480     1.5790     0.4380 cl         1 245      -0.173000
      2 C1          -0.8620    -0.3710     0.1210 c          1 245       0.671100
      3 O1          -0.9630    -1.5920     0.1400 o          1 245      -0.592100
      4 C3           1.6890    -0.1400     0.2630 ca         1 245       0.047000
      5 C4           2.0730    -1.4950     0.3130 ca         1 245      -0.193000
      6 C5           3.4350    -1.8240     0.3980 ca         1 245       0.371900
      7 N6           4.4180    -0.8980     0.4360 nb         1 245      -0.675000
      8 C7           4.0490     0.3980     0.3880 ca         1 245       0.470000
      9 C8           2.7140     0.8170     0.3020 ca         1 245      -0.230000
     10 N9          -1.9370     0.5040     0.0410 ns         1 245      -0.161000
     11 C10         -3.3430     0.2950    -0.0360 ca         1 245      -0.017000
     12 C11         -3.9470    -0.9830    -0.0420 ca         1 245      -0.140500
     13 C12         -5.3460    -1.1090    -0.1200 ca         1 245      -0.085000
     14 C13         -6.1540     0.0370    -0.1920 ca         1 245      -0.128000
     15 C14         -5.5640     1.3100    -0.1860 ca         1 245      -0.085000
     16 C15         -4.1660     1.4350    -0.1080 ca         1 245      -0.140500
     17 HN2          0.2550     1.3180     0.1500 hn         1 245       0.151000
     18 H4           1.3510    -2.3040     0.2880 ha         1 245       0.163000
     19 H5           3.7500    -2.8660     0.4380 h4         1 245       0.028100
     20 H8           2.4870     1.8790     0.2670 ha         1 245       0.133000
     21 HN9         -1.6740     1.4810     0.0350 hn         1 245       0.149000
     22 H11         -3.3550    -1.8910     0.0120 ha         1 245       0.125000
     23 H12         -5.8030    -2.0960    -0.1240 ha         1 245       0.116000
     24 H13         -7.2360    -0.0630    -0.2520 ha         1 245       0.118000
     25 H14         -6.1890     2.1990    -0.2410 ha         1 245       0.116000
     26 H15         -3.7220     2.4290    -0.1050 ha         1 245       0.125000
     27 N2           0.3440     0.3110     0.1760 ns         1 245      -0.161000
@<TRIPOS>BOND
     1     1     8 1   
     2     2     3 2   
     3     2    10 1   
     4     2    27 1   
     5     4     5 ar  
     6     4     9 ar  
     7     4    27 1   
     8     5     6 ar  
     9     5    18 1   
    10     6     7 ar  
    11     6    19 1   
    12     7     8 ar  
    13     8     9 ar  
    14     9    20 1   
    15    10    11 1   
    16    10    21 1   
    17    11    12 ar  
    18    11    16 ar  
    19    12    13 ar  
    20    12    22 1   
    21    13    14 ar  
    22    13    23 1   
    23    14    15 ar  
    24    14    24 1   
    25    15    16 ar  
    26    15    25 1   
    27    16    26 1   
    28    17    27 1   
@<TRIPOS>SUBSTRUCTURE
     1 245         1 TEMP              0 ****  ****    0 ROOT
