@<TRIPOS>MOLECULE
246
   30    31     1     0     0
SMALL
No Charge or Current Charge


@<TRIPOS>ATOM
      1 Cl5         -5.2260     1.5370     1.4240 cl         1 246      -0.176000
      2 C1           0.6140    -1.0670     0.1850 c          1 246       0.666100
      3 O1           0.6770    -1.5920    -0.9170 o          1 246      -0.615100
      4 N2           1.6790    -1.0460     1.0540 ns         1 246      -0.513900
      5 C3          -1.8010    -0.2180     0.1730 ca         1 246       0.050000
      6 N3          -0.5030    -0.4360     0.7050 ns         1 246      -0.162000
      7 C4          -2.7430     0.4620     0.9600 ca         1 246      -0.233000
      8 C5          -4.0310     0.6890     0.4560 ca         1 246       0.471000
      9 N6          -4.4300     0.2870    -0.7680 nb         1 246      -0.677000
     10 C7          -3.5270    -0.3680    -1.5300 ca         1 246       0.369900
     11 C8          -2.2160    -0.6390    -1.1060 ca         1 246      -0.194000
     12 C9           2.9990    -1.6070     0.7630 c3         1 246       0.160300
     13 C10          3.9530    -0.5330     0.2580 ca         1 246      -0.129300
     14 C11          4.0160    -0.2310    -1.1170 ca         1 246      -0.093500
     15 C12          4.8940     0.7620    -1.5840 ca         1 246      -0.113500
     16 C13          5.7120     1.4610    -0.6800 ca         1 246      -0.100000
     17 C14          5.6510     1.1650     0.6920 ca         1 246      -0.113500
     18 C15          4.7740     0.1720     1.1600 ca         1 246      -0.093500
     19 HN2          1.5420    -0.5840     1.9440 hn         1 246       0.310500
     20 HN3         -0.3760    -0.0590     1.6340 hn         1 246       0.150000
     21 H4          -2.4870     0.8140     1.9560 ha         1 246       0.132000
     22 H7          -3.8660    -0.6860    -2.5160 h4         1 246       0.026100
     23 H8          -1.5570    -1.1690    -1.7830 ha         1 246       0.162000
     24 H91          3.4010    -2.0550     1.6810 h1         1 246       0.067700
     25 H92          2.9110    -2.4090     0.0180 h1         1 246       0.067700
     26 H11          3.3840    -0.7660    -1.8230 ha         1 246       0.118500
     27 H12          4.9390     0.9910    -2.6470 ha         1 246       0.115500
     28 H13          6.3910     2.2300    -1.0420 ha         1 246       0.115000
     29 H14          6.2830     1.7060     1.3930 ha         1 246       0.115500
     30 H15          4.7320    -0.0490     2.2250 ha         1 246       0.118500
@<TRIPOS>BOND
     1     1     8 1   
     2     2     3 2   
     3     2     4 1   
     4     2     6 1   
     5     4    12 1   
     6     4    19 1   
     7     5     6 1   
     8     5     7 ar  
     9     5    11 ar  
    10     6    20 1   
    11     7     8 ar  
    12     7    21 1   
    13     8     9 ar  
    14     9    10 ar  
    15    10    11 ar  
    16    10    22 1   
    17    11    23 1   
    18    12    13 1   
    19    12    24 1   
    20    12    25 1   
    21    13    14 ar  
    22    13    18 ar  
    23    14    15 ar  
    24    14    26 1   
    25    15    16 ar  
    26    15    27 1   
    27    16    17 ar  
    28    16    28 1   
    29    17    18 ar  
    30    17    29 1   
    31    18    30 1   
@<TRIPOS>SUBSTRUCTURE
     1 246         1 TEMP              0 ****  ****    0 ROOT
