@<TRIPOS>MOLECULE
246
   30    31     1     0     0
SMALL
abcg2


@<TRIPOS>ATOM
      1 CL5         -5.0280     1.7300     1.1770 cl         1 246      -0.176000
      2 C1           0.6230    -1.0690     0.2510 c          1 246       0.666100
      3 O1           0.6420    -1.5610    -0.8650 o          1 246      -0.615100
      4 N2           1.6600    -1.1170     1.1120 ns         1 246      -0.513900
      5 C3          -1.7090    -0.2240     0.1810 ca         1 246       0.050000
      6 N3          -0.4810    -0.4150     0.7700 ns         1 246      -0.162000
      7 C4          -2.6350     0.5600     0.8770 ca         1 246      -0.233000
      8 C5          -3.8770     0.7570     0.3110 ca         1 246       0.471000
      9 N6          -4.2780     0.2710    -0.8400 nb         1 246      -0.677000
     10 C7          -3.3910    -0.4740    -1.4960 ca         1 246       0.369900
     11 C8          -2.1150    -0.7560    -1.0500 ca         1 246      -0.194000
     12 C9           2.9630    -1.6290     0.7410 c3         1 246       0.160300
     13 C10          3.8920    -0.5490     0.2460 ca         1 246      -0.129300
     14 C11          3.8290    -0.1070    -1.0750 ca         1 246      -0.093500
     15 C12          4.6600     0.9120    -1.5180 ca         1 246      -0.113500
     16 C13          5.5670     1.5040    -0.6460 ca         1 246      -0.100000
     17 C14          5.6390     1.0670     0.6700 ca         1 246      -0.113500
     18 C15          4.8050     0.0470     1.1100 ca         1 246      -0.093500
     19 HN2          1.6030    -0.6250     1.9900 hn         1 246       0.310500
     20 HN3         -0.3790     0.0010     1.6840 hn         1 246       0.150000
     21 H4          -2.3870     1.0010     1.8330 ha         1 246       0.132000
     22 H7          -3.7200    -0.8800    -2.4450 h4         1 246       0.026100
     23 H8          -1.4690    -1.3750    -1.6470 ha         1 246       0.162000
     24 H91          3.3880    -2.1160     1.6190 h1         1 246       0.067700
     25 H92          2.8300    -2.4000    -0.0160 h1         1 246       0.067700
     26 H11          3.1270    -0.5640    -1.7600 ha         1 246       0.118500
     27 H12          4.6030     1.2430    -2.5470 ha         1 246       0.115500
     28 H13          6.2160     2.2980    -0.9930 ha         1 246       0.115000
     29 H14          6.3450     1.5200     1.3540 ha         1 246       0.115500
     30 H15          4.8690    -0.2900     2.1390 ha         1 246       0.118500
@<TRIPOS>BOND
     1     1     8 1   
     2     2     3 2   
     3     2     4 1   
     4     2     6 1   
     5     4    12 1   
     6     4    19 1   
     7     5     6 1   
     8     5     7 ar  
     9     5    11 ar  
    10     6    20 1   
    11     7     8 ar  
    12     7    21 1   
    13     8     9 ar  
    14     9    10 ar  
    15    10    11 ar  
    16    10    22 1   
    17    11    23 1   
    18    12    13 1   
    19    12    24 1   
    20    12    25 1   
    21    13    14 ar  
    22    13    18 ar  
    23    14    15 ar  
    24    14    26 1   
    25    15    16 ar  
    26    15    27 1   
    27    16    17 ar  
    28    16    28 1   
    29    17    18 ar  
    30    17    29 1   
    31    18    30 1   
@<TRIPOS>SUBSTRUCTURE
     1 246         1 TEMP              0 ****  ****    0 ROOT
