@<TRIPOS>MOLECULE
247
   23    23     1     0     0
SMALL
bcc


@<TRIPOS>ATOM
      1 CAB          1.5040    -1.0690     0.6460 ca         1 247      -0.077000
      2 CAD          2.8530    -0.8580     0.8790 ca         1 247      -0.200000
      3 CAE          3.5680     0.0310     0.0790 ca         1 247       0.116100
      4 OAK          4.8800     0.2040     0.3410 oh         1 247      -0.509100
      5 CAF          2.9130     0.6930    -0.9560 ca         1 247      -0.200000
      6 CAC          1.5610     0.4680    -1.1720 ca         1 247      -0.077000
      7 CAA          0.8310    -0.4130    -0.3820 ca         1 247      -0.128300
      8 CAG         -0.6480    -0.6180    -0.6380 c3         1 247       0.160800
      9 NAJ         -1.1690    -1.9510    -0.4160 n8         1 247      -0.853800
     10 CAH         -1.4950     0.3510     0.1800 c3         1 247       0.265600
     11 CAI         -3.0080     0.2660    -0.1410 c          1 247       0.939600
     12 OAM         -3.2840     0.5550    -1.3160 o          1 247      -0.796800
     13 OAL         -3.7640    -0.0630     0.7820 o          1 247      -0.796800
     14 F1          -1.2630     0.1390     1.5100 f          1 247      -0.266800
     15 F2          -1.0670     1.6320    -0.0580 f          1 247      -0.266800
     16 HAB          0.9820    -1.7760     1.2780 ha         1 247       0.135000
     17 HAD          3.3580    -1.3790     1.6830 ha         1 247       0.125000
     18 HOAK         5.2590     0.8530    -0.2610 ho         1 247       0.415000
     19 HAF          3.4550     1.3800    -1.5960 ha         1 247       0.125000
     20 HAC          1.0730     0.9860    -1.9900 ha         1 247       0.135000
     21 HAG         -0.8440    -0.3670    -1.6840 h1         1 247       0.094700
     22 HAJ1        -0.6850    -2.6110    -1.0100 hn         1 247       0.330800
     23 HAJ2        -1.0160    -2.2570     0.5370 hn         1 247       0.330800
@<TRIPOS>BOND
     1     1     2 ar  
     2     1     7 ar  
     3     1    16 1   
     4     2     3 ar  
     5     2    17 1   
     6     3     4 1   
     7     3     5 ar  
     8     4    18 1   
     9     5     6 ar  
    10     5    19 1   
    11     6     7 ar  
    12     6    20 1   
    13     7     8 1   
    14     8     9 1   
    15     8    10 1   
    16     8    21 1   
    17     9    22 1   
    18     9    23 1   
    19    10    11 1   
    20    10    14 1   
    21    10    15 1   
    22    11    12 1   
    23    11    13 1   
@<TRIPOS>SUBSTRUCTURE
     1 247         1 TEMP              0 ****  ****    0 ROOT
