@<TRIPOS>MOLECULE
247
   23    23     1     0     0
SMALL
No Charge or Current Charge


@<TRIPOS>ATOM
      1 CAB          1.4310    -0.8460     0.8130 ca         1 247      -0.059000
      2 CAD          2.8100    -0.6600     1.0210 ca         1 247      -0.182000
      3 CAE          3.5810     0.0160     0.0650 ca         1 247       0.116100
      4 OAK          4.9150     0.1920     0.2740 oh         1 247      -0.548100
      5 CAF          2.9770     0.5090    -1.1010 ca         1 247      -0.182000
      6 CAC          1.5990     0.3250    -1.3120 ca         1 247      -0.059000
      7 CAA          0.8120    -0.3530    -0.3570 ca         1 247      -0.128300
      8 CAG         -0.6890    -0.5390    -0.6080 c3         1 247       0.160800
      9 NAJ         -0.9970    -1.9870    -0.6570 n8         1 247      -0.964200
     10 CAH         -1.5970     0.2360     0.4040 c3         1 247       0.023000
     11 CAI         -3.0710     0.3220    -0.1220 c          1 247       0.729000
     12 OAM         -3.2730     0.8710    -1.2000 o          1 247      -0.691500
     13 OAL         -3.9860    -0.0690     0.5970 o          1 247      -0.691500
     14 F1          -1.5330    -0.3560     1.6290 f          1 247      -0.145500
     15 F2          -1.0970     1.4890     0.5740 f          1 247      -0.145500
     16 HAB          0.8490    -1.3740     1.5650 ha         1 247       0.117000
     17 HAD          3.2770    -1.0420     1.9240 ha         1 247       0.107000
     18 HOAK         5.2850     0.6810    -0.4920 ho         1 247       0.454000
     19 HAF          3.5680     1.0340    -1.8480 ha         1 247       0.107000
     20 HAC          1.1430     0.7130    -2.2210 ha         1 247       0.117000
     21 HAG         -0.9070    -0.1310    -1.6070 h1         1 247       0.094700
     22 HAJ1        -0.3370    -2.4390    -1.2990 hn         1 247       0.386000
     23 HAJ2        -0.7660    -2.3970     0.2530 hn         1 247       0.386000
@<TRIPOS>BOND
     1     1     2 ar  
     2     1     7 ar  
     3     1    16 1   
     4     2     3 ar  
     5     2    17 1   
     6     3     4 1   
     7     3     5 ar  
     8     4    18 1   
     9     5     6 ar  
    10     5    19 1   
    11     6     7 ar  
    12     6    20 1   
    13     7     8 1   
    14     8     9 1   
    15     8    10 1   
    16     8    21 1   
    17     9    22 1   
    18     9    23 1   
    19    10    11 1   
    20    10    14 1   
    21    10    15 1   
    22    11    12 1   
    23    11    13 1   
@<TRIPOS>SUBSTRUCTURE
     1 247         1 TEMP              0 ****  ****    0 ROOT
