@<TRIPOS>MOLECULE
24B
   16    16     1     0     0
SMALL
No Charge or Current Charge


@<TRIPOS>ATOM
      1 F2          -2.2700    -0.0130     0.6970 f          1 24B      -0.179000
      2 F4           0.3520    -0.0350    -3.2660 f          1 24B      -0.173000
      3 O1           1.2420     0.0080     3.0980 oh         1 24B      -0.661000
      4 C1           0.1160    -0.0090     0.9000 ca         1 24B      -0.142300
      5 C2          -1.0530    -0.0150     0.1090 ca         1 24B       0.194000
      6 C3          -0.9760    -0.0240    -1.2910 ca         1 24B      -0.198000
      7 C4           0.2760    -0.0270    -1.9170 ca         1 24B       0.198000
      8 C5           1.4490    -0.0200    -1.1510 ca         1 24B      -0.173000
      9 C6           1.3750    -0.0110     0.2540 ca         1 24B      -0.035000
     10 HO1          1.0490     0.0140     4.0620 ho         1 24B       0.451000
     11 H3          -1.8840    -0.0300    -1.8870 ha         1 24B       0.150000
     12 H5           2.4170    -0.0220    -1.6460 ha         1 24B       0.137000
     13 H6           2.2990    -0.0060     0.8280 ha         1 24B       0.140000
     14 H71         -0.6030    -0.8820     2.7290 h1         1 24B       0.034700
     15 H72         -0.6060     0.8860     2.7170 h1         1 24B       0.034700
     16 C7          -0.0250     0.0010     2.4250 c3         1 24B       0.218900
@<TRIPOS>BOND
     1     1     5 1   
     2     2     7 1   
     3     3    10 1   
     4     3    16 1   
     5     4     5 ar  
     6     4     9 ar  
     7     4    16 1   
     8     5     6 ar  
     9     6     7 ar  
    10     6    11 1   
    11     7     8 ar  
    12     8     9 ar  
    13     8    12 1   
    14     9    13 1   
    15    14    16 1   
    16    15    16 1   
@<TRIPOS>SUBSTRUCTURE
     1 24B         1 TEMP              0 ****  ****    0 ROOT
