@<TRIPOS>MOLECULE
24D
   43    45     1     0     0
SMALL
No Charge or Current Charge


@<TRIPOS>ATOM
      1 Cl1          5.9330    -3.2730    -0.1660 cl         1 24D      -0.191000
      2 C2           4.9940    -1.7860    -0.1230 ca         1 24D       0.130000
      3 C3           5.1510    -0.8290    -1.1360 ca         1 24D      -0.106000
      4 C4           4.4010     0.3600    -1.1040 ca         1 24D      -0.090000
      5 C5           3.4890     0.5980    -0.0540 ca         1 24D      -0.104300
      6 C6           2.6840     1.8910    -0.0410 c3         1 24D       0.160300
      7 N7           1.3260     1.6710    -0.5300 ns         1 24D      -0.522900
      8 C8           0.3270     2.6070    -0.4850 c          1 24D       0.657100
      9 O9           0.5290     3.7300    -0.0510 o          1 24D      -0.635100
     10 N10         -0.9360     2.1980    -0.9640 n          1 24D      -0.409800
     11 C11         -2.1260     3.0830    -0.8930 c6         1 24D       0.097500
     12 C12         -3.1960     2.4760     0.0440 c6         1 24D      -0.123900
     13 C13         -3.5780     1.0450    -0.4010 c6         1 24D       0.190300
     14 C14         -2.3060     0.1630    -0.5180 c6         1 24D      -0.123900
     15 C15         -1.2610     0.8260    -1.4440 c6         1 24D       0.097500
     16 O16         -4.5090     0.4870     0.5530 os         1 24D      -0.439300
     17 C17         -5.1600    -0.7030     0.2960 ca         1 24D       0.360300
     18 N18         -5.5490    -1.4090     1.3810 nb         1 24D      -0.225500
     19 C19         -6.1940    -2.5720     1.1690 ca         1 24D       0.146400
     20 C20         -6.4570    -3.0350    -0.1280 ca         1 24D      -0.268000
     21 C21         -6.0250    -2.2390    -1.1980 ca         1 24D       0.146400
     22 N22         -5.3810    -1.0750    -0.9890 nb         1 24D      -0.225500
     23 C23          3.3360    -0.3750     0.9610 ca         1 24D       0.139000
     24 Cl24         2.2000    -0.1390     2.2900 cl         1 24D      -0.175000
     25 C25          4.0880    -1.5610     0.9240 ca         1 24D      -0.103000
     26 H3           5.8530    -1.0080    -1.9470 ha         1 24D       0.134000
     27 H4           4.5280     1.0950    -1.8960 ha         1 24D       0.121000
     28 H6           2.6430     2.2980     0.9780 h1         1 24D       0.069700
     29 H6A          3.1710     2.6420    -0.6770 h1         1 24D       0.069700
     30 HN7          1.0900     0.7620    -0.9010 hn         1 24D       0.313500
     31 H11         -1.8540     4.0860    -0.5350 h1         1 24D       0.058950
     32 H11A        -2.5450     3.2030    -1.9030 h1         1 24D       0.058950
     33 H12         -2.8110     2.4550     1.0720 hc         1 24D       0.068950
     34 H12A        -4.0880     3.1160     0.0510 hc         1 24D       0.068950
     35 H13         -4.0660     1.1160    -1.3860 h1         1 24D       0.064700
     36 H14         -1.8680     0.0090     0.4780 hc         1 24D       0.068950
     37 H14A        -2.5600    -0.8300    -0.9100 hc         1 24D       0.068950
     38 H15         -1.6710     0.8950    -2.4620 h1         1 24D       0.058950
     39 H15A        -0.3730     0.1840    -1.5060 h1         1 24D       0.058950
     40 H19         -6.5010    -3.1360     2.0480 h4         1 24D       0.025100
     41 H20         -6.9780    -3.9740    -0.2980 ha         1 24D       0.138000
     42 H21         -6.1960    -2.5320    -2.2330 h4         1 24D       0.025100
     43 H25          3.9660    -2.3050     1.7050 ha         1 24D       0.146000
@<TRIPOS>BOND
     1     1     2 1   
     2     2     3 ar  
     3     2    25 ar  
     4     3     4 ar  
     5     3    26 1   
     6     4     5 ar  
     7     4    27 1   
     8     5     6 1   
     9     5    23 ar  
    10     6     7 1   
    11     6    28 1   
    12     6    29 1   
    13     7     8 1   
    14     7    30 1   
    15     8     9 2   
    16     8    10 1   
    17    10    11 1   
    18    10    15 1   
    19    11    12 1   
    20    11    31 1   
    21    11    32 1   
    22    12    13 1   
    23    12    33 1   
    24    12    34 1   
    25    13    14 1   
    26    13    16 1   
    27    13    35 1   
    28    14    15 1   
    29    14    36 1   
    30    14    37 1   
    31    15    38 1   
    32    15    39 1   
    33    16    17 1   
    34    17    18 ar  
    35    17    22 ar  
    36    18    19 ar  
    37    19    20 ar  
    38    19    40 1   
    39    20    21 ar  
    40    20    41 1   
    41    21    22 ar  
    42    21    42 1   
    43    23    24 1   
    44    23    25 ar  
    45    25    43 1   
@<TRIPOS>SUBSTRUCTURE
     1 24D         1 TEMP              0 ****  ****    0 ROOT
