@<TRIPOS>MOLECULE
24E
   42    46     1     0     0
SMALL
abcg2


@<TRIPOS>ATOM
      1 C18          3.5360     0.2090    -0.2300 ca         1 24E      -0.064000
      2 C19          4.4740     0.5830    -1.1720 ca         1 24E      -0.174500
      3 C22          4.9710     1.8870    -1.1770 ca         1 24E       0.142100
      4 O3           5.8830     2.2100    -2.1170 oh         1 24E      -0.532100
      5 C21          4.5150     2.7940    -0.2260 ca         1 24E      -0.174500
      6 C20          3.5720     2.3970     0.7150 ca         1 24E      -0.064000
      7 C17          3.0680     1.1050     0.7300 ca         1 24E      -0.128300
      8 C16          2.0240     0.6750     1.7340 c3         1 24E       0.054200
      9 C10          0.7020     0.4020     1.1050 cc         1 24E      -0.188300
     10 N1          -0.1530     1.3910     0.6930 na         1 24E      -0.078000
     11 C9           0.0900    -0.7670     0.7520 cd         1 24E       0.086100
     12 O1           0.5720    -2.0070     0.9670 os         1 24E      -0.198200
     13 C4          -0.1700    -3.0510     0.5360 ca         1 24E       0.171100
     14 C6           0.3730    -4.3190     0.7360 ca         1 24E      -0.154000
     15 C5          -0.3240    -5.4290     0.3060 ca         1 24E      -0.054000
     16 C3          -1.5630    -5.2950    -0.3230 ca         1 24E      -0.156000
     17 C1          -2.0970    -4.0380    -0.5070 ca         1 24E      -0.025000
     18 C2          -1.4180    -2.8930    -0.0780 ca         1 24E      -0.231600
     19 C7          -2.0080    -1.5550    -0.3010 c          1 24E       0.638300
     20 O2          -3.1120    -1.4080    -0.8060 o          1 24E      -0.558100
     21 C8          -1.1480    -0.4860     0.1240 cd         1 24E      -0.288600
     22 C11         -1.2760     0.9060     0.1110 cc         1 24E       0.027000
     23 C12         -2.2960     1.8130    -0.3670 cc         1 24E      -0.190000
     24 S1          -3.7120     1.3140    -1.2280 ss         1 24E       0.361000
     25 C15         -4.2530     2.9280    -1.3890 cc         1 24E      -0.273000
     26 C14         -3.4030     3.8170    -0.8040 cd         1 24E      -0.134000
     27 C13         -2.2840     3.1800    -0.2210 cd         1 24E      -0.137000
     28 H1           3.1640    -0.8100    -0.2400 ha         1 24E       0.115000
     29 H2           4.8280    -0.1300    -1.9060 ha         1 24E       0.122000
     30 H3           6.1600     3.1270    -2.0140 ho         1 24E       0.464000
     31 H4           4.8900     3.8110    -0.2150 ha         1 24E       0.122000
     32 H5           3.2260     3.1190     1.4460 ha         1 24E       0.115000
     33 H6           2.3530    -0.2300     2.2490 hc         1 24E       0.063200
     34 H7           1.9150     1.4410     2.5060 hc         1 24E       0.063200
     35 H8           0.0570     2.3720     0.8000 hn         1 24E       0.355000
     36 H9           1.3360    -4.4190     1.2210 ha         1 24E       0.131000
     37 H10          0.1010    -6.4120     0.4610 ha         1 24E       0.117000
     38 H11         -2.0930    -6.1710    -0.6710 ha         1 24E       0.121000
     39 H12         -3.0550    -3.9200    -0.9970 ha         1 24E       0.135000
     40 H13         -5.1820     3.1360    -1.8980 h4         1 24E       0.151000
     41 H14         -3.5660     4.8850    -0.7830 ha         1 24E       0.133000
     42 H15         -1.5070     3.7290     0.2940 ha         1 24E       0.118000
@<TRIPOS>BOND
     1     1     2 ar  
     2     1     7 ar  
     3     1    28 1   
     4     2     3 ar  
     5     2    29 1   
     6     3     4 1   
     7     3     5 ar  
     8     4    30 1   
     9     5     6 ar  
    10     5    31 1   
    11     6     7 ar  
    12     6    32 1   
    13     7     8 1   
    14     8     9 1   
    15     8    33 1   
    16     8    34 1   
    17     9    10 1   
    18     9    11 2   
    19    10    22 1   
    20    10    35 1   
    21    11    12 1   
    22    11    21 1   
    23    12    13 1   
    24    13    14 ar  
    25    13    18 ar  
    26    14    15 ar  
    27    14    36 1   
    28    15    16 ar  
    29    15    37 1   
    30    16    17 ar  
    31    16    38 1   
    32    17    18 ar  
    33    17    39 1   
    34    18    19 1   
    35    19    20 2   
    36    19    21 1   
    37    21    22 2   
    38    22    23 1   
    39    23    24 1   
    40    23    27 2   
    41    24    25 1   
    42    25    26 2   
    43    25    40 1   
    44    26    27 1   
    45    26    41 1   
    46    27    42 1   
@<TRIPOS>SUBSTRUCTURE
     1 24E         1 TEMP              0 ****  ****    0 ROOT
