@<TRIPOS>MOLECULE
24E
   42    46     1     0     0
SMALL
No Charge or Current Charge


@<TRIPOS>ATOM
      1 C18          3.7750    -0.1570     0.6500 ca         1 24E      -0.064000
      2 C19          4.8370    -0.2080    -0.2700 ca         1 24E      -0.174500
      3 C22          5.1710     0.9270    -1.0230 ca         1 24E       0.142100
      4 O3           6.2020     0.8660    -1.9120 oh         1 24E      -0.532100
      5 C21          4.4450     2.1170    -0.8600 ca         1 24E      -0.174500
      6 C20          3.3810     2.1710     0.0590 ca         1 24E      -0.064000
      7 C17          3.0430     1.0350     0.8200 ca         1 24E      -0.128300
      8 C16          1.8850     1.0920     1.8090 c3         1 24E       0.054200
      9 C10          0.5620     0.8080     1.1500 cc         1 24E      -0.188300
     10 N1          -0.4290     1.7520     0.8620 na         1 24E      -0.078000
     11 C9           0.0430    -0.3570     0.6810 cd         1 24E       0.086100
     12 O1           0.6760    -1.5590     0.7470 os         1 24E      -0.198200
     13 C4           0.0910    -2.6980     0.2400 ca         1 24E       0.171100
     14 C6           0.7990    -3.9080     0.3280 ca         1 24E      -0.154000
     15 C5           0.2390    -5.0940    -0.1750 ca         1 24E      -0.054000
     16 C3          -1.0330    -5.0670    -0.7680 ca         1 24E      -0.156000
     17 C1          -1.7470    -3.8600    -0.8610 ca         1 24E      -0.025000
     18 C2          -1.1910    -2.6640    -0.3570 ca         1 24E      -0.231600
     19 C7          -1.9440    -1.3630    -0.4520 c          1 24E       0.638300
     20 O2          -3.0530    -1.3210    -0.9620 o          1 24E      -0.558100
     21 C8          -1.2230    -0.1990     0.1150 cd         1 24E      -0.288600
     22 C11         -1.5310     1.1500     0.2300 cc         1 24E       0.027000
     23 C12         -2.6910     1.9270    -0.1690 cc         1 24E      -0.190000
     24 S1          -4.1600     1.3540    -0.9700 ss         1 24E       0.361000
     25 C15         -4.8390     2.9790    -0.9800 cc         1 24E      -0.273000
     26 C14         -3.9770     3.8750    -0.4030 cd         1 24E      -0.134000
     27 C13         -2.7680     3.2870     0.0540 cd         1 24E      -0.137000
     28 H1           3.5190    -1.0440     1.2260 ha         1 24E       0.115000
     29 H2           5.3980    -1.1300    -0.3990 ha         1 24E       0.122000
     30 H3           6.2910     1.7430    -2.3430 ho         1 24E       0.464000
     31 H4           4.6950     3.0010    -1.4410 ha         1 24E       0.122000
     32 H5           2.8190     3.0950     0.1780 ha         1 24E       0.115000
     33 H6           2.0470     0.3700     2.6200 hc         1 24E       0.063200
     34 H7           1.8570     2.0750     2.2950 hc         1 24E       0.063200
     35 H8          -0.3650     2.7390     1.0770 hn         1 24E       0.355000
     36 H9           1.7830    -3.9250     0.7890 ha         1 24E       0.131000
     37 H10          0.7900    -6.0300    -0.1050 ha         1 24E       0.117000
     38 H11         -1.4680    -5.9850    -1.1580 ha         1 24E       0.121000
     39 H12         -2.7320    -3.8600    -1.3250 ha         1 24E       0.135000
     40 H13         -5.8180     3.1440    -1.4100 h4         1 24E       0.151000
     41 H14         -4.1980     4.9350    -0.3050 ha         1 24E       0.133000
     42 H15         -1.9920     3.8760     0.5320 ha         1 24E       0.118000
@<TRIPOS>BOND
     1     1     2 ar  
     2     1     7 ar  
     3     1    28 1   
     4     2     3 ar  
     5     2    29 1   
     6     3     4 1   
     7     3     5 ar  
     8     4    30 1   
     9     5     6 ar  
    10     5    31 1   
    11     6     7 ar  
    12     6    32 1   
    13     7     8 1   
    14     8     9 1   
    15     8    33 1   
    16     8    34 1   
    17     9    10 1   
    18     9    11 2   
    19    10    22 1   
    20    10    35 1   
    21    11    12 1   
    22    11    21 1   
    23    12    13 1   
    24    13    14 ar  
    25    13    18 ar  
    26    14    15 ar  
    27    14    36 1   
    28    15    16 ar  
    29    15    37 1   
    30    16    17 ar  
    31    16    38 1   
    32    17    18 ar  
    33    17    39 1   
    34    18    19 1   
    35    19    20 2   
    36    19    21 1   
    37    21    22 2   
    38    22    23 1   
    39    23    24 1   
    40    23    27 2   
    41    24    25 1   
    42    25    26 2   
    43    25    40 1   
    44    26    27 1   
    45    26    41 1   
    46    27    42 1   
@<TRIPOS>SUBSTRUCTURE
     1 24E         1 TEMP              0 ****  ****    0 ROOT
