@<TRIPOS>MOLECULE
24F
   63    65     1     0     0
SMALL
bcc


@<TRIPOS>ATOM
      1 C01          4.4910     2.6190    -0.0410 ca         1 24F       0.145100
      2 C02          3.6090     2.1070    -0.9960 ca         1 24F      -0.194000
      3 C03          2.8830     0.9650    -0.7340 ca         1 24F      -0.077500
      4 C04          3.0130     0.2870     0.4840 ca         1 24F      -0.047000
      5 C05          3.8970     0.8060     1.4270 ca         1 24F      -0.077500
      6 C06          4.6280     1.9580     1.1790 ca         1 24F      -0.194000
      7 O07          5.1530     3.7360    -0.3780 os         1 24F      -0.327900
      8 C08          6.0920     4.2890     0.5380 c3         1 24F       0.143400
      9 C09          2.2430    -0.9170     0.7730 cc         1 24F      -0.010100
     10 C10          1.7900    -1.3680     1.9890 cd         1 24F      -0.176000
     11 C11          1.0670    -2.5770     1.9010 cd         1 24F      -0.032000
     12 C12          0.9930    -3.0340     0.6180 cc         1 24F      -0.300600
     13 S13          1.8110    -2.0090    -0.4890 ss         1 24F       0.063200
     14 S14          0.0100    -4.3460     0.0110 sy         1 24F       1.329200
     15 N15         -1.5280    -3.8370    -0.0930 n7         1 24F      -0.802100
     16 O16          0.4980    -4.5800    -1.3390 o          1 24F      -0.632800
     17 O17          0.0200    -5.4120     1.0000 o          1 24F      -0.632800
     18 C18         -1.9450    -2.7110    -0.9270 c3         1 24F       0.083500
     19 C19         -3.4040    -2.9510    -1.3870 c          1 24F       0.944600
     20 OM0         -3.7370    -2.3920    -2.4470 o          1 24F      -0.816300
     21 O21         -4.1140    -3.6480    -0.6410 o          1 24F      -0.816300
     22 C22         -1.7940    -1.3610    -0.1970 c6         1 24F      -0.065700
     23 C23         -2.7280    -1.1940     1.0000 c6         1 24F      -0.089400
     24 C24         -2.4310     0.1170     1.7180 c6         1 24F       0.103000
     25 N25         -2.5230     1.2390     0.8000 n          1 24F      -0.461800
     26 C26         -1.6390     1.1310    -0.3490 c6         1 24F       0.103000
     27 C27         -1.9120    -0.1540    -1.1230 c6         1 24F      -0.089400
     28 C28          6.6820     5.5280    -0.0920 c3         1 24F      -0.094100
     29 C29         -3.5050     2.1540     0.9450 c          1 24F       0.766100
     30 O30         -3.4870     3.0760    -0.0190 os         1 24F      -0.441900
     31 O31         -4.3090     2.1600     1.8610 o          1 24F      -0.618000
     32 C32         -4.4940     4.1040    -0.0110 c3         1 24F       0.175100
     33 C33         -3.9100     5.2730    -0.7780 c3         1 24F      -0.105600
     34 C34         -5.7800     3.5870    -0.6290 c3         1 24F      -0.105600
     35 H02          3.4920     2.6180    -1.9440 ha         1 24F       0.137000
     36 H03          2.1900     0.6080    -1.4870 ha         1 24F       0.138000
     37 H05          4.0350     0.3000     2.3740 ha         1 24F       0.138000
     38 H06          5.3020     2.3170     1.9440 ha         1 24F       0.137000
     39 H08          5.5980     4.5400     1.4820 h1         1 24F       0.033200
     40 H08A         6.8770     3.5580     0.7580 h1         1 24F       0.033200
     41 H10          1.9490    -0.8340     2.9160 ha         1 24F       0.144000
     42 H11          0.5970    -3.0650     2.7440 ha         1 24F       0.159000
     43 HN15        -2.0920    -4.0180     0.7280 hn         1 24F       0.454800
     44 H18         -1.2980    -2.6990    -1.8080 h1         1 24F       0.065700
     45 H22         -0.7760    -1.3310     0.2020 hc         1 24F       0.005700
     46 H23         -3.7740    -1.2020     0.6830 hc         1 24F       0.065450
     47 H23A        -2.5990    -2.0140     1.7120 hc         1 24F       0.065450
     48 H24         -3.1130     0.2670     2.5490 h1         1 24F       0.046450
     49 H24A        -1.4160     0.0890     2.1310 h1         1 24F       0.046450
     50 H26         -1.7410     1.9990    -0.9930 h1         1 24F       0.046450
     51 H26A        -0.6060     1.1210     0.0170 h1         1 24F       0.046450
     52 H27         -1.1860    -0.2310    -1.9380 hc         1 24F       0.065450
     53 H27A        -2.9030    -0.1070    -1.5790 hc         1 24F       0.065450
     54 H28          5.9160     6.2780    -0.2890 hc         1 24F       0.045033
     55 H28A         7.4120     5.9660     0.5890 hc         1 24F       0.045033
     56 H28B         7.1930     5.2970    -1.0260 hc         1 24F       0.045033
     57 H32         -4.6820     4.4120     1.0200 h1         1 24F       0.057700
     58 H33         -3.6890     5.0020    -1.8120 hc         1 24F       0.044033
     59 H33A        -4.6250     6.0950    -0.7930 hc         1 24F       0.044033
     60 H33B        -2.9930     5.6360    -0.3120 hc         1 24F       0.044033
     61 H34         -6.5310     4.3770    -0.6290 hc         1 24F       0.044033
     62 H34A        -5.6210     3.2740    -1.6620 hc         1 24F       0.044033
     63 H34B        -6.1860     2.7460    -0.0690 hc         1 24F       0.044033
@<TRIPOS>BOND
     1     1     2 ar  
     2     1     6 ar  
     3     1     7 1   
     4     2     3 ar  
     5     2    35 1   
     6     3     4 ar  
     7     3    36 1   
     8     4     5 ar  
     9     4     9 1   
    10     5     6 ar  
    11     5    37 1   
    12     6    38 1   
    13     7     8 1   
    14     8    28 1   
    15     8    39 1   
    16     8    40 1   
    17     9    10 2   
    18     9    13 1   
    19    10    11 1   
    20    10    41 1   
    21    11    12 2   
    22    11    42 1   
    23    12    13 1   
    24    12    14 1   
    25    14    15 1   
    26    14    16 2   
    27    14    17 2   
    28    15    18 1   
    29    15    43 1   
    30    18    19 1   
    31    18    22 1   
    32    18    44 1   
    33    19    20 1   
    34    19    21 1   
    35    22    23 1   
    36    22    27 1   
    37    22    45 1   
    38    23    24 1   
    39    23    46 1   
    40    23    47 1   
    41    24    25 1   
    42    24    48 1   
    43    24    49 1   
    44    25    26 1   
    45    25    29 1   
    46    26    27 1   
    47    26    50 1   
    48    26    51 1   
    49    27    52 1   
    50    27    53 1   
    51    28    54 1   
    52    28    55 1   
    53    28    56 1   
    54    29    30 1   
    55    29    31 2   
    56    30    32 1   
    57    32    33 1   
    58    32    34 1   
    59    32    57 1   
    60    33    58 1   
    61    33    59 1   
    62    33    60 1   
    63    34    61 1   
    64    34    62 1   
    65    34    63 1   
@<TRIPOS>SUBSTRUCTURE
     1 24F         1 TEMP              0 ****  ****    0 ROOT
