@<TRIPOS>MOLECULE
24F
   63    65     1     0     0
SMALL
No Charge or Current Charge


@<TRIPOS>ATOM
      1 C01          7.5090     1.8880     0.3500 ca         1 24F       0.145100
      2 C02          6.5080     1.9820    -0.6280 ca         1 24F      -0.176000
      3 C03          5.3500     1.1890    -0.5430 ca         1 24F      -0.059500
      4 C04          5.1760     0.2890     0.5280 ca         1 24F      -0.047000
      5 C05          6.1880     0.1930     1.5070 ca         1 24F      -0.059500
      6 C06          7.3470     0.9860     1.4220 ca         1 24F      -0.176000
      7 O07          8.6220     2.6910     0.2130 os         1 24F      -0.351100
      8 C08          9.7030     2.6690     1.1610 c3         1 24F       0.166600
      9 C09          3.9670    -0.5370     0.6020 cc         1 24F      -0.155000
     10 C10          3.4280    -0.9350     1.8020 cd         1 24F      -0.158000
     11 C11          2.2470    -1.7090     1.6430 cd         1 24F      -0.014000
     12 C12          1.8890    -1.8820     0.3270 cc         1 24F      -0.445500
     13 S13          3.0100    -1.0980    -0.7710 ss         1 24F       0.353000
     14 S14          0.4980    -2.7810    -0.2820 sy         1 24F       1.187600
     15 N15         -0.7180    -1.7060     0.0880 n7         1 24F      -0.857300
     16 O16          0.5990    -2.8480    -1.7410 o          1 24F      -0.562000
     17 O17          0.2910    -3.9550     0.5690 o          1 24F      -0.562000
     18 C18         -1.8790    -1.5650    -0.8580 c3         1 24F       0.083500
     19 C19         -2.6820    -2.9050    -1.1450 c          1 24F       0.734000
     20 OM0         -2.8210    -3.2510    -2.3130 o          1 24F      -0.711000
     21 O21         -3.0940    -3.5780    -0.2070 o          1 24F      -0.711000
     22 C22         -2.7820    -0.3570    -0.4270 c6         1 24F      -0.065700
     23 C23         -3.4580    -0.5350     0.9520 c6         1 24F      -0.089400
     24 C24         -4.2400     0.7300     1.3720 c6         1 24F       0.103000
     25 N25         -5.1600     1.2880     0.3370 n          1 24F      -0.394800
     26 C26         -4.6940     1.2180    -1.0840 c6         1 24F       0.103000
     27 C27         -3.8910    -0.0500    -1.4570 c6         1 24F      -0.089400
     28 C28         10.7560     3.6850     0.6890 c3         1 24F      -0.094100
     29 C29         -6.1470     2.2150     0.7310 c          1 24F       0.650100
     30 O30         -6.7480     2.8240    -0.3400 os         1 24F      -0.465100
     31 O31         -6.4230     2.4460     1.9010 o          1 24F      -0.569000
     32 C32         -7.8320     3.7420    -0.1110 c3         1 24F       0.198300
     33 C33         -7.9710     4.5850    -1.3920 c3         1 24F      -0.105600
     34 C34         -9.1100     2.9300     0.1980 c3         1 24F      -0.105600
     35 H02          6.6280     2.6750    -1.4560 ha         1 24F       0.119000
     36 H03          4.5860     1.2850    -1.3100 ha         1 24F       0.120000
     37 H05          6.0890    -0.5070     2.3330 ha         1 24F       0.120000
     38 H06          8.1050     0.8830     2.1930 ha         1 24F       0.119000
     39 H08          9.3490     2.9480     2.1620 h1         1 24F       0.033200
     40 H08A        10.1570     1.6710     1.2120 h1         1 24F       0.033200
     41 H10          3.8420    -0.6850     2.7740 ha         1 24F       0.126000
     42 H11          1.6820    -2.1150     2.4790 ha         1 24F       0.141000
     43 HN15        -0.1890    -0.8390     0.1420 hn         1 24F       0.510000
     44 H18         -1.4770    -1.2770    -1.8400 h1         1 24F       0.065700
     45 H22         -2.1150     0.5160    -0.3760 hc         1 24F       0.005700
     46 H23         -4.1520    -1.3850     0.9260 hc         1 24F       0.065450
     47 H23A        -2.7120    -0.7690     1.7230 hc         1 24F       0.065450
     48 H24         -4.8110     0.4960     2.2810 h1         1 24F       0.046450
     49 H24A        -3.5190     1.5150     1.6410 h1         1 24F       0.046450
     50 H26         -5.5560     1.2770    -1.7640 h1         1 24F       0.046450
     51 H26A        -4.0690     2.1010    -1.2800 h1         1 24F       0.046450
     52 H27         -3.4580     0.0780    -2.4590 hc         1 24F       0.065450
     53 H27A        -4.5840    -0.9000    -1.5270 hc         1 24F       0.065450
     54 H28         10.3270     4.6930     0.6440 hc         1 24F       0.045033
     55 H28A        11.6030     3.7030     1.3850 hc         1 24F       0.045033
     56 H28B        11.1330     3.4180    -0.3050 hc         1 24F       0.045033
     57 H32         -7.6100     4.4190     0.7250 h1         1 24F       0.057700
     58 H33         -8.1860     3.9470    -2.2590 hc         1 24F       0.044033
     59 H33A        -8.7870     5.3100    -1.2880 hc         1 24F       0.044033
     60 H33B        -7.0460     5.1390    -1.5890 hc         1 24F       0.044033
     61 H34         -9.9720     3.6000     0.2940 hc         1 24F       0.044033
     62 H34A        -9.3200     2.2140    -0.6060 hc         1 24F       0.044033
     63 H34B        -9.0110     2.3760     1.1380 hc         1 24F       0.044033
@<TRIPOS>BOND
     1     1     2 ar  
     2     1     6 ar  
     3     1     7 1   
     4     2     3 ar  
     5     2    35 1   
     6     3     4 ar  
     7     3    36 1   
     8     4     5 ar  
     9     4     9 1   
    10     5     6 ar  
    11     5    37 1   
    12     6    38 1   
    13     7     8 1   
    14     8    28 1   
    15     8    39 1   
    16     8    40 1   
    17     9    10 2   
    18     9    13 1   
    19    10    11 1   
    20    10    41 1   
    21    11    12 2   
    22    11    42 1   
    23    12    13 1   
    24    12    14 1   
    25    14    15 1   
    26    14    16 2   
    27    14    17 2   
    28    15    18 1   
    29    15    43 1   
    30    18    19 1   
    31    18    22 1   
    32    18    44 1   
    33    19    20 1   
    34    19    21 1   
    35    22    23 1   
    36    22    27 1   
    37    22    45 1   
    38    23    24 1   
    39    23    46 1   
    40    23    47 1   
    41    24    25 1   
    42    24    48 1   
    43    24    49 1   
    44    25    26 1   
    45    25    29 1   
    46    26    27 1   
    47    26    50 1   
    48    26    51 1   
    49    27    52 1   
    50    27    53 1   
    51    28    54 1   
    52    28    55 1   
    53    28    56 1   
    54    29    30 1   
    55    29    31 2   
    56    30    32 1   
    57    32    33 1   
    58    32    34 1   
    59    32    57 1   
    60    33    58 1   
    61    33    59 1   
    62    33    60 1   
    63    34    61 1   
    64    34    62 1   
    65    34    63 1   
@<TRIPOS>SUBSTRUCTURE
     1 24F         1 TEMP              0 ****  ****    0 ROOT
