@<TRIPOS>MOLECULE
24G
  101   103     1     0     0
SMALL
No Charge or Current Charge


@<TRIPOS>ATOM
      1 C36         -2.0480     0.5760    -2.1010 cc         1 24G      -0.397200
      2 C37         -2.3470     1.0990    -0.8640 cd         1 24G       0.031600
      3 C35         -0.6790     0.4610    -2.5730 c          1 24G       0.588200
      4 C33          0.0220     1.5890    -0.5280 c          1 24G       0.635000
      5 C3          -2.1000    -3.3780    -0.1590 c6         1 24G       0.125500
      6 C2          -0.9740    -2.7120    -1.0340 c6         1 24G       0.141300
      7 C1          -0.9370    -3.3570    -2.4620 c6         1 24G       0.146300
      8 C26         -2.9070     3.1960     2.8410 c5         1 24G       0.095300
      9 C27         -2.4300     3.2740     1.3630 c5         1 24G       0.063300
     10 C25         -3.1660     1.6520     3.0180 c5         1 24G       0.150300
     11 C6          -2.3480    -3.3060    -3.1210 c6         1 24G       0.139300
     12 C28         -1.5620     1.9740     1.3400 c5         1 24G       0.347700
     13 C4          -3.4690    -3.3140    -0.9490 c6         1 24G       0.414300
     14 C52         16.2560     4.4410     0.2480 c3         1 24G      -0.087100
     15 C14          2.2720    -2.0820     0.8110 c3         1 24G      -0.175400
     16 C24         -4.6570     1.2460     2.8780 c3         1 24G       0.224600
     17 C7          -2.3860    -4.0430    -4.5010 c3         1 24G       0.173600
     18 C51         14.7680     4.5640    -0.1350 c3         1 24G      -0.075400
     19 C50         13.9260     3.3490     0.3120 c3         1 24G      -0.075400
     20 C49         12.4350     3.4720    -0.0720 c3         1 24G      -0.075400
     21 C48         11.5940     2.2570     0.3750 c3         1 24G      -0.073400
     22 C47         10.1030     2.3800    -0.0090 c3         1 24G      -0.075400
     23 C46          9.2610     1.1650     0.4380 c3         1 24G      -0.073400
     24 C45          7.7700     1.2880     0.0540 c3         1 24G      -0.075400
     25 C42          4.5970    -1.0240     0.5660 c3         1 24G      -0.105400
     26 C40          3.0890    -0.9050     0.2370 c3         1 24G       0.170300
     27 N34          0.2350     1.0110    -1.7410 ns         1 24G      -0.458500
     28 N32         -1.3080     1.5840    -0.0680 n          1 24G      -0.305000
     29 O39         -0.3650    -0.1280    -3.5900 o          1 24G      -0.619000
     30 O38          0.9520     2.0570     0.1080 o          1 24G      -0.602000
     31 O15          0.0810    -1.0880     1.0640 o          1 24G      -0.468000
     32 O18         -6.2740    -2.5480    -0.4130 o          1 24G      -0.836000
     33 O29         -2.3910     0.9940     1.9810 os         1 24G      -0.409000
     34 O5          -3.3240    -3.9320    -2.2440 os         1 24G      -0.469000
     35 O9           0.0800    -2.7620    -3.3100 oh         1 24G      -0.747000
     36 O31         -1.7060     4.4990     1.1110 oh         1 24G      -0.702000
     37 O8          -3.6940    -4.0640    -5.1010 oh         1 24G      -0.668000
     38 O41          2.9130    -0.8580    -1.1830 oh         1 24G      -0.655000
     39 O17         -5.6900    -0.2030    -1.0210 o          1 24G      -0.836000
     40 O10          0.3550    -2.7900    -0.4500 os         1 24G      -0.440100
     41 O12         -3.9160    -1.9700    -1.1490 os         1 24G      -0.606400
     42 O23         -4.7940    -0.1580     3.1560 os         1 24G      -0.576400
     43 P16         -5.2390    -1.4740    -0.3850 p5         1 24G       1.456800
     44 P20         -5.6560    -1.0850     2.1590 p5         1 24G       1.461800
     45 H1          -2.8120     0.1610    -2.7490 ha         1 24G       0.264000
     46 H2          -3.3450     1.1360    -0.4230 h4         1 24G       0.294000
     47 H3          -1.8340    -4.4380    -0.0360 h1         1 24G       0.037700
     48 H4          -1.2340    -1.6550    -1.1490 h1         1 24G       0.106700
     49 H5          -0.6930    -4.4210    -2.3210 h1         1 24G       0.056700
     50 H6          -3.8260     3.7800     2.9930 h1         1 24G       0.040700
     51 H7          -3.2920     3.1880     0.6860 h1         1 24G       0.079700
     52 H8          -2.8100     1.3120     3.9990 h1         1 24G       0.082700
     53 H9          -2.6370    -2.2600    -3.2950 h1         1 24G       0.104700
     54 H10         -0.6150     2.0930     1.8810 h2         1 24G       0.094700
     55 H11         -4.2160    -3.8870    -0.3770 h2         1 24G       0.079700
     56 H12         16.3710     4.3580     1.3350 hc         1 24G       0.028700
     57 H13         16.7050     3.5550    -0.2180 hc         1 24G       0.028700
     58 H14         16.8110     5.3240    -0.0900 hc         1 24G       0.028700
     59 H15          2.4010    -2.0970     1.9000 hc         1 24G       0.063200
     60 H16          2.6380    -3.0210     0.3790 hc         1 24G       0.063200
     61 H17         -5.2540     1.8270     3.5930 h1         1 24G       0.016700
     62 H18         -5.0000     1.4980     1.8660 h1         1 24G       0.016700
     63 H19         -1.6810    -3.5490    -5.1820 h1         1 24G       0.007200
     64 H20         -2.0300    -5.0720    -4.3530 h1         1 24G       0.007200
     65 H21         14.3590     5.4760     0.3160 hc         1 24G       0.036700
     66 H22         14.6890     4.6810    -1.2230 hc         1 24G       0.036700
     67 H23         14.3400     2.4380    -0.1390 hc         1 24G       0.035200
     68 H24         14.0100     3.2340     1.4000 hc         1 24G       0.035200
     69 H25         12.0210     4.3820     0.3790 hc         1 24G       0.037200
     70 H26         12.3520     3.5870    -1.1600 hc         1 24G       0.037200
     71 H27         12.0080     1.3460    -0.0760 hc         1 24G       0.035200
     72 H28         11.6770     2.1420     1.4630 hc         1 24G       0.035200
     73 H29          9.6890     3.2900     0.4420 hc         1 24G       0.037700
     74 H30         10.0200     2.4950    -1.0970 hc         1 24G       0.037700
     75 H31          9.6750     0.2540    -0.0130 hc         1 24G       0.033700
     76 H32          9.3440     1.0490     1.5260 hc         1 24G       0.033700
     77 H33          7.3560     2.1980     0.5050 hc         1 24G       0.040700
     78 H34          7.6870     1.4030    -1.0340 hc         1 24G       0.040700
     79 H35          7.3430    -0.8380     0.0490 hc         1 24G       0.030700
     80 H36          7.0130    -0.0430     1.5880 hc         1 24G       0.030700
     81 H41          2.7140     0.0240     0.6950 h1         1 24G       0.111700
     82 H42          1.1980     0.9400    -2.0280 hn         1 24G       0.337500
     83 H48         -0.1150    -1.7850    -3.4060 ho         1 24G       0.542000
     84 H50         -1.5140     4.5410     0.1440 ho         1 24G       0.493000
     85 H51         -3.6250    -4.6130    -5.9140 ho         1 24G       0.470000
     86 H52          3.3260    -1.6680    -1.5510 ho         1 24G       0.438000
     87 H39          5.0020    -1.9350     0.1070 hc         1 24G       0.034200
     88 C43          5.4380     0.1950     0.1160 c3         1 24G      -0.073400
     89 O30         -1.8680     3.6910     3.6920 oh         1 24G      -0.715000
     90 O21         -5.9120    -2.4020     2.8140 o          1 24G      -0.843500
     91 O22         -6.9190    -0.3760     1.8010 o          1 24G      -0.843500
     92 O19         -4.5720    -1.2150     1.0160 os         1 24G      -0.698800
     93 N11         -2.1960    -2.8120     1.2270 n8         1 24G      -1.014200
     94 C13          0.7900    -1.9080     0.5030 c          1 24G       0.609100
     95 H40          4.7100    -1.1440     1.6510 hc         1 24G       0.034200
     96 H43         -1.4120    -2.1610     1.3610 hn         1 24G       0.415500
     97 C44          6.9290     0.0720     0.5000 c3         1 24G      -0.074400
     98 H37          5.0230     1.1050     0.5690 hc         1 24G       0.052200
     99 H38          5.3590     0.3150    -0.9710 hc         1 24G       0.052200
    100 H44         -3.0070    -2.1690     1.2480 hn         1 24G       0.415500
    101 H49         -1.4180     4.3680     3.1260 ho         1 24G       0.501000
@<TRIPOS>BOND
     1     1     2 2   
     2     1     3 1   
     3     1    45 1   
     4     2    28 1   
     5     2    46 1   
     6     3    27 1   
     7     3    29 2   
     8     4    27 1   
     9     4    28 1   
    10     4    30 2   
    11     5     6 1   
    12     5    13 1   
    13     5    47 1   
    14     5    93 1   
    15     6     7 1   
    16     6    40 1   
    17     6    48 1   
    18     7    11 1   
    19     7    35 1   
    20     7    49 1   
    21     8     9 1   
    22     8    10 1   
    23     8    50 1   
    24     8    89 1   
    25     9    12 1   
    26     9    36 1   
    27     9    51 1   
    28    10    16 1   
    29    10    33 1   
    30    10    52 1   
    31    11    17 1   
    32    11    34 1   
    33    11    53 1   
    34    12    28 1   
    35    12    33 1   
    36    12    54 1   
    37    13    34 1   
    38    13    41 1   
    39    13    55 1   
    40    14    18 1   
    41    14    56 1   
    42    14    57 1   
    43    14    58 1   
    44    15    26 1   
    45    15    59 1   
    46    15    60 1   
    47    15    94 1   
    48    16    42 1   
    49    16    61 1   
    50    16    62 1   
    51    17    37 1   
    52    17    63 1   
    53    17    64 1   
    54    18    19 1   
    55    18    65 1   
    56    18    66 1   
    57    19    20 1   
    58    19    67 1   
    59    19    68 1   
    60    20    21 1   
    61    20    69 1   
    62    20    70 1   
    63    21    22 1   
    64    21    71 1   
    65    21    72 1   
    66    22    23 1   
    67    22    73 1   
    68    22    74 1   
    69    23    24 1   
    70    23    75 1   
    71    23    76 1   
    72    24    77 1   
    73    24    78 1   
    74    24    97 1   
    75    25    26 1   
    76    25    87 1   
    77    25    88 1   
    78    25    95 1   
    79    26    38 1   
    80    26    81 1   
    81    27    82 1   
    82    31    94 2   
    83    32    43 1   
    84    35    83 1   
    85    36    84 1   
    86    37    85 1   
    87    38    86 1   
    88    39    43 1   
    89    40    94 1   
    90    41    43 1   
    91    42    44 1   
    92    43    92 1   
    93    44    90 1   
    94    44    91 1   
    95    44    92 1   
    96    79    97 1   
    97    80    97 1   
    98    88    97 1   
    99    88    98 1   
   100    88    99 1   
   101    89   101 1   
   102    93    96 1   
   103    93   100 1   
@<TRIPOS>SUBSTRUCTURE
     1 24G         1 TEMP              0 ****  ****    0 ROOT
