@<TRIPOS>MOLECULE
24G
  101   103     1     0     0
SMALL
abcg2


@<TRIPOS>ATOM
      1 C36         -2.0600     0.6530    -1.6920 cc         1 24G      -0.397200
      2 C37         -2.2610     1.1820    -0.4720 cd         1 24G       0.031600
      3 C35         -0.7190     0.4630    -2.1630 c          1 24G       0.588200
      4 C33          0.0810     1.4340    -0.0450 c          1 24G       0.635000
      5 C3          -1.6850    -4.0270    -0.0780 c6         1 24G       0.125500
      6 C2          -0.8740    -3.1870    -1.0590 c6         1 24G       0.141300
      7 C1          -1.1100    -3.6820    -2.4840 c6         1 24G       0.146300
      8 C26         -2.7400     3.5000     3.0800 c5         1 24G       0.095300
      9 C27         -2.0030     3.4930     1.7360 c5         1 24G       0.063300
     10 C25         -3.4140     2.1320     3.0410 c5         1 24G       0.150300
     11 C6          -2.6170    -3.6100    -2.7870 c6         1 24G       0.139300
     12 C28         -1.5320     2.0440     1.6880 c5         1 24G       0.347700
     13 C4          -3.1580    -3.9000    -0.4880 c6         1 24G       0.414300
     14 C52         16.0160     4.6360     0.4290 c3         1 24G      -0.087100
     15 C14          2.5610    -2.4590     0.0740 c3         1 24G      -0.175400
     16 C24         -4.8130     2.2480     2.4650 c3         1 24G       0.224600
     17 C7          -2.9270    -4.2390    -4.1300 c3         1 24G       0.173600
     18 C51         14.5380     4.7650     0.0870 c3         1 24G      -0.075400
     19 C50         13.7470     3.5000     0.3980 c3         1 24G      -0.075400
     20 C49         12.2670     3.6120     0.0560 c3         1 24G      -0.075400
     21 C48         11.4830     2.3400     0.3500 c3         1 24G      -0.073400
     22 C47         10.0030     2.4500     0.0060 c3         1 24G      -0.075400
     23 C46          9.2250     1.1680     0.2770 c3         1 24G      -0.073400
     24 C45          7.7440     1.2760    -0.0640 c3         1 24G      -0.075400
     25 C42          4.7500    -1.2200     0.0530 c3         1 24G      -0.105400
     26 C40          3.2430    -1.1090    -0.1370 c3         1 24G       0.170300
     27 N34          0.2540     0.9220    -1.3030 ns         1 24G      -0.458500
     28 N32         -1.2390     1.5560     0.3490 n          1 24G      -0.305000
     29 O39         -0.3980    -0.0630    -3.2240 o          1 24G      -0.619000
     30 O38          1.0190     1.7620     0.6510 o          1 24G      -0.602000
     31 O15          0.4450    -1.4290     0.4790 o          1 24G      -0.468000
     32 O18         -5.9680    -3.1310     0.1200 o          1 24G      -0.836000
     33 O29         -2.5900     1.3010     2.2160 os         1 24G      -0.409000
     34 O5          -3.3570    -4.3140    -1.8080 os         1 24G      -0.469000
     35 O9          -0.3460    -2.9980    -3.4390 oh         1 24G      -0.747000
     36 O31         -0.9190     4.3660     1.6480 oh         1 24G      -0.702000
     37 O8          -4.2940    -4.0720    -4.4200 oh         1 24G      -0.668000
     38 O41          2.8930    -0.5610    -1.3940 oh         1 24G      -0.655000
     39 O17         -5.3090    -1.4700    -1.7720 o          1 24G      -0.836000
     40 O10          0.5220    -3.2750    -0.7850 os         1 24G      -0.440100
     41 O12         -3.5080    -2.5680    -0.2840 os         1 24G      -0.606400
     42 O23         -5.3720     0.9820     2.2120 os         1 24G      -0.576400
     43 P16         -5.0730    -2.0600    -0.4210 p5         1 24G       1.456800
     44 P20         -5.7930     0.5030     0.6930 p5         1 24G       1.461800
     45 H1          -2.9030     0.3340    -2.2850 ha         1 24G       0.264000
     46 H2          -3.2690     1.3250    -0.1010 h4         1 24G       0.294000
     47 H3          -1.4050    -5.0790    -0.2030 h1         1 24G       0.037700
     48 H4          -1.1880    -2.1420    -0.9780 h1         1 24G       0.106700
     49 H5          -0.7990    -4.7320    -2.5450 h1         1 24G       0.056700
     50 H6          -3.4750     4.3140     3.1340 h1         1 24G       0.040700
     51 H7          -2.7310     3.6640     0.9300 h1         1 24G       0.079700
     52 H8          -3.4560     1.6880     4.0400 h1         1 24G       0.082700
     53 H9          -2.9320    -2.5570    -2.8080 h1         1 24G       0.104700
     54 H10         -0.6200     1.9270     2.2780 h2         1 24G       0.094700
     55 H11         -3.7730    -4.5730     0.1180 h2         1 24G       0.079700
     56 H12         16.1580     4.4300     1.4920 hc         1 24G       0.028700
     57 H13         16.4780     3.8190    -0.1280 hc         1 24G       0.028700
     58 H14         16.5640     5.5490     0.1930 hc         1 24G       0.028700
     59 H15          2.7930    -2.8320     1.0770 hc         1 24G       0.063200
     60 H16          2.9410    -3.2010    -0.6320 hc         1 24G       0.063200
     61 H17         -5.4310     2.7740     3.2000 h1         1 24G       0.016700
     62 H18         -4.7990     2.8620     1.5620 h1         1 24G       0.016700
     63 H19         -2.2940    -3.7600    -4.8840 h1         1 24G       0.007200
     64 H20         -2.6440    -5.3010    -4.0990 h1         1 24G       0.007200
     65 H21         14.1040     5.6070     0.6360 hc         1 24G       0.036700
     66 H22         14.4270     5.0080    -0.9740 hc         1 24G       0.036700
     67 H23         14.1830     2.6580    -0.1520 hc         1 24G       0.035200
     68 H24         13.8570     3.2550     1.4600 hc         1 24G       0.035200
     69 H25         11.8270     4.4480     0.6120 hc         1 24G       0.037200
     70 H26         12.1580     3.8660    -1.0040 hc         1 24G       0.037200
     71 H27         11.9230     1.5060    -0.2090 hc         1 24G       0.035200
     72 H28         11.5910     2.0820     1.4090 hc         1 24G       0.035200
     73 H29          9.5570     3.2740     0.5750 hc         1 24G       0.037700
     74 H30          9.8950     2.7210    -1.0500 hc         1 24G       0.037700
     75 H31          9.6700     0.3480    -0.2970 hc         1 24G       0.033700
     76 H32          9.3350     0.8910     1.3310 hc         1 24G       0.033700
     77 H33          7.2940     2.0840     0.5240 hc         1 24G       0.040700
     78 H34          7.6330     1.5710    -1.1130 hc         1 24G       0.040700
     79 H35          7.4200    -0.8170    -0.4280 hc         1 24G       0.030700
     80 H36          7.1020    -0.3260     1.2210 hc         1 24G       0.030700
     81 H41          2.8490    -0.4000     0.5970 h1         1 24G       0.111700
     82 H42          1.2130     0.6920    -1.5440 hn         1 24G       0.337500
     83 H48         -0.4810    -2.0400    -3.3560 ho         1 24G       0.542000
     84 H50         -1.2410     5.2340     1.3870 ho         1 24G       0.493000
     85 H51         -4.4490    -4.4140    -5.3050 ho         1 24G       0.470000
     86 H52          3.2410    -1.1290    -2.0910 ho         1 24G       0.438000
     87 H39          5.1540    -1.9770    -0.6300 hc         1 24G       0.034200
     88 C43          5.4920     0.0960    -0.1410 c3         1 24G      -0.073400
     89 O30         -1.8400     3.5440     4.1570 oh         1 24G      -0.715000
     90 O21         -7.2410     0.1290     0.7130 o          1 24G      -0.843500
     91 O22         -5.2720     1.4960    -0.3050 o          1 24G      -0.843500
     92 O19         -4.8890    -0.8640     0.6920 os         1 24G      -0.698800
     93 N11         -1.4150    -3.6630     1.2940 n8         1 24G      -1.014200
     94 C13          1.0660    -2.3280    -0.0280 c          1 24G       0.609100
     95 H40          4.9370    -1.5960     1.0640 hc         1 24G       0.034200
     96 H43         -1.7560    -2.7270     1.4740 hn         1 24G       0.415500
     97 C44          6.9770    -0.0170     0.1770 c3         1 24G      -0.074400
     98 H37          5.0430     0.8670     0.4950 hc         1 24G       0.052200
     99 H38          5.3670     0.4410    -1.1710 hc         1 24G       0.052200
    100 H44         -1.9250    -4.2810     1.9150 hn         1 24G       0.415500
    101 H49         -1.2310     4.2760     4.0050 ho         1 24G       0.501000
@<TRIPOS>BOND
     1     1     2 2   
     2     1     3 1   
     3     1    45 1   
     4     2    28 1   
     5     2    46 1   
     6     3    27 1   
     7     3    29 2   
     8     4    27 1   
     9     4    28 1   
    10     4    30 2   
    11     5     6 1   
    12     5    13 1   
    13     5    47 1   
    14     5    93 1   
    15     6     7 1   
    16     6    40 1   
    17     6    48 1   
    18     7    11 1   
    19     7    35 1   
    20     7    49 1   
    21     8     9 1   
    22     8    10 1   
    23     8    50 1   
    24     8    89 1   
    25     9    12 1   
    26     9    36 1   
    27     9    51 1   
    28    10    16 1   
    29    10    33 1   
    30    10    52 1   
    31    11    17 1   
    32    11    34 1   
    33    11    53 1   
    34    12    28 1   
    35    12    33 1   
    36    12    54 1   
    37    13    34 1   
    38    13    41 1   
    39    13    55 1   
    40    14    18 1   
    41    14    56 1   
    42    14    57 1   
    43    14    58 1   
    44    15    26 1   
    45    15    59 1   
    46    15    60 1   
    47    15    94 1   
    48    16    42 1   
    49    16    61 1   
    50    16    62 1   
    51    17    37 1   
    52    17    63 1   
    53    17    64 1   
    54    18    19 1   
    55    18    65 1   
    56    18    66 1   
    57    19    20 1   
    58    19    67 1   
    59    19    68 1   
    60    20    21 1   
    61    20    69 1   
    62    20    70 1   
    63    21    22 1   
    64    21    71 1   
    65    21    72 1   
    66    22    23 1   
    67    22    73 1   
    68    22    74 1   
    69    23    24 1   
    70    23    75 1   
    71    23    76 1   
    72    24    77 1   
    73    24    78 1   
    74    24    97 1   
    75    25    26 1   
    76    25    87 1   
    77    25    88 1   
    78    25    95 1   
    79    26    38 1   
    80    26    81 1   
    81    27    82 1   
    82    31    94 2   
    83    32    43 1   
    84    35    83 1   
    85    36    84 1   
    86    37    85 1   
    87    38    86 1   
    88    39    43 1   
    89    40    94 1   
    90    41    43 1   
    91    42    44 1   
    92    43    92 1   
    93    44    90 1   
    94    44    91 1   
    95    44    92 1   
    96    79    97 1   
    97    80    97 1   
    98    88    97 1   
    99    88    98 1   
   100    88    99 1   
   101    89   101 1   
   102    93    96 1   
   103    93   100 1   
@<TRIPOS>SUBSTRUCTURE
     1 24G         1 TEMP              0 ****  ****    0 ROOT
