@<TRIPOS>MOLECULE
24H
   33    34     1     0     0
SMALL
No Charge or Current Charge


@<TRIPOS>ATOM
      1 C4          -1.7250     0.9380     0.0560 cc         1 24H       0.187400
      2 C5          -2.5330    -0.0430    -0.4680 cd         1 24H       0.127500
      3 C6          -3.9740    -0.0770    -0.0740 c          1 24H       0.558500
      4 C8          -0.5630    -0.3660    -1.2960 cc         1 24H       0.425400
      5 O6          -4.8060    -0.8880    -0.4640 o          1 24H      -0.599000
      6 N7          -1.7980    -0.8590    -1.3230 nd         1 24H      -0.612000
      7 N1          -4.2960     0.9240     0.7950 ns         1 24H      -0.417400
      8 C2          -3.4090     1.8390     1.2390 cd         1 24H       0.728800
      9 N2          -3.8600     2.7580     2.0810 nv         1 24H      -1.044200
     10 N3          -2.1360     1.9250     0.9310 nc         1 24H      -0.657100
     11 N9          -0.4710     0.7400    -0.4670 na         1 24H      -0.165500
     12 CAJ          0.7270     1.5660    -0.2100 c3         1 24H       0.095600
     13 CAS          2.0840     0.8150    -0.2830 c3         1 24H       0.153300
     14 CAH          3.2970     1.7670    -0.0110 c3         1 24H       0.126600
     15 OAD          3.2500     2.3730     1.2950 oh         1 24H      -0.712000
     16 OAN          2.0440    -0.2840     0.6750 os         1 24H      -0.440000
     17 CAI          3.1550    -1.2310     0.6610 c3         1 24H      -0.167400
     18 PAU          3.4070    -2.2550    -0.9100 p5         1 24H       1.288500
     19 OAE          2.1110    -2.8750    -1.3160 o          1 24H      -0.929500
     20 OAF          3.9110    -1.3730    -2.0040 o          1 24H      -0.929500
     21 OAC          4.4090    -3.3250    -0.6290 o          1 24H      -0.929500
     22 H8           0.2810    -0.7420    -1.8590 h5         1 24H       0.028100
     23 HN1         -5.2580     0.9710     1.0910 hn         1 24H       0.293500
     24 HN2         -4.6690     2.5200     2.6420 hn         1 24H       0.464000
     25 HN2A        -3.1410     3.3020     2.5430 hn         1 24H       0.464000
     26 HAJ          0.7350     2.3830    -0.9410 h1         1 24H       0.036200
     27 HAJA         0.6250     2.0180     0.7850 h1         1 24H       0.036200
     28 HAS          2.1920     0.4340    -1.3060 h1         1 24H       0.116700
     29 HAH          4.2360     1.2130    -0.1360 h1         1 24H       0.005700
     30 HAHA         3.2940     2.5530    -0.7770 h1         1 24H       0.005700
     31 HOAD         4.0890     2.8740     1.4100 ho         1 24H       0.458000
     32 HAI          4.1010    -0.7210     0.8770 h1         1 24H       0.001700
     33 HAIA         3.0050    -1.9620     1.4660 h1         1 24H       0.001700
@<TRIPOS>BOND
     1     1     2 2   
     2     1    10 1   
     3     1    11 1   
     4     2     3 1   
     5     2     6 1   
     6     3     5 2   
     7     3     7 1   
     8     4     6 2   
     9     4    11 1   
    10     4    22 1   
    11     7     8 1   
    12     7    23 1   
    13     8     9 1   
    14     8    10 2   
    15     9    24 1   
    16     9    25 1   
    17    11    12 1   
    18    12    13 1   
    19    12    26 1   
    20    12    27 1   
    21    13    14 1   
    22    13    16 1   
    23    13    28 1   
    24    14    15 1   
    25    14    29 1   
    26    14    30 1   
    27    15    31 1   
    28    16    17 1   
    29    17    18 1   
    30    17    32 1   
    31    17    33 1   
    32    18    19 1   
    33    18    20 1   
    34    18    21 1   
@<TRIPOS>SUBSTRUCTURE
     1 24H         1 TEMP              0 ****  ****    0 ROOT
