@<TRIPOS>MOLECULE
24H
   33    34     1     0     0
SMALL
bcc


@<TRIPOS>ATOM
      1 C4          -1.1510     0.9610    -0.3660 cc         1 24H       0.172800
      2 C5          -1.9580     0.1370    -1.1290 cd         1 24H       0.192800
      3 C6          -3.0350    -0.5360    -0.4970 c          1 24H       0.701000
      4 C8          -0.4170     0.7780    -2.4090 cc         1 24H       0.425400
      5 O6          -3.8230    -1.3450    -0.9750 o          1 24H      -0.674500
      6 N7          -1.4860     0.0430    -2.4110 nd         1 24H      -0.612000
      7 N1          -3.1440    -0.1530     0.8390 ns         1 24H      -0.484400
      8 C2          -2.3010     0.6950     1.4930 cd         1 24H       0.728800
      9 N2          -2.5930     0.9500     2.7930 nv         1 24H      -0.933800
     10 N3          -1.3100     1.3090     0.9180 nc         1 24H      -0.657100
     11 N9          -0.1730     1.3810    -1.2060 na         1 24H      -0.186900
     12 CAJ          1.0220     2.1170    -0.8630 c3         1 24H       0.066300
     13 CAS          2.1060     1.1890    -0.3200 c3         1 24H       0.130100
     14 CAH          3.4450     1.8980    -0.2100 c3         1 24H       0.103400
     15 OAD          3.3130     3.0490     0.5940 oh         1 24H      -0.589800
     16 OAN          1.6700     0.7060     0.9210 os         1 24H      -0.393600
     17 CAI          2.0110    -0.6470     1.1940 c3         1 24H      -0.032800
     18 PAU          0.9520    -1.9540     0.3760 p5         1 24H       1.130700
     19 OAE         -0.4600    -1.8210     0.9530 o          1 24H      -0.929500
     20 OAF          1.0680    -1.7000    -1.1340 o          1 24H      -0.929500
     21 OAC          1.6730    -3.2400     0.8290 o          1 24H      -0.929500
     22 H8           0.2350     0.9430    -3.2540 h5         1 24H       0.028100
     23 HN1         -3.8850    -0.5960     1.3650 hn         1 24H       0.293500
     24 HN2         -3.1180     0.2650     3.3110 hn         1 24H       0.408800
     25 HN2A        -1.8510     1.3780     3.3220 hn         1 24H       0.408800
     26 HAJ          1.3740     2.6230    -1.7640 h1         1 24H       0.036200
     27 HAJA         0.7650     2.8860    -0.1350 h1         1 24H       0.036200
     28 HAS          2.2220     0.3660    -1.0340 h1         1 24H       0.116700
     29 HAH          4.1800     1.1960     0.2060 h1         1 24H       0.005700
     30 HAHA         3.7890     2.1470    -1.2240 h1         1 24H       0.005700
     31 HOAD         4.1760     3.4670     0.6610 ho         1 24H       0.359000
     32 HAI          3.0710    -0.8260     0.9450 h1         1 24H       0.001700
     33 HAIA         1.9440    -0.7540     2.2830 h1         1 24H       0.001700
@<TRIPOS>BOND
     1     1     2 2   
     2     1    10 1   
     3     1    11 1   
     4     2     3 1   
     5     2     6 1   
     6     3     5 2   
     7     3     7 1   
     8     4     6 2   
     9     4    11 1   
    10     4    22 1   
    11     7     8 1   
    12     7    23 1   
    13     8     9 1   
    14     8    10 2   
    15     9    24 1   
    16     9    25 1   
    17    11    12 1   
    18    12    13 1   
    19    12    26 1   
    20    12    27 1   
    21    13    14 1   
    22    13    16 1   
    23    13    28 1   
    24    14    15 1   
    25    14    29 1   
    26    14    30 1   
    27    15    31 1   
    28    16    17 1   
    29    17    18 1   
    30    17    32 1   
    31    17    33 1   
    32    18    19 1   
    33    18    20 1   
    34    18    21 1   
@<TRIPOS>SUBSTRUCTURE
     1 24H         1 TEMP              0 ****  ****    0 ROOT
