@<TRIPOS>MOLECULE
24I
   34    34     1     0     0
SMALL
No Charge or Current Charge


@<TRIPOS>ATOM
      1 O5           8.2930     2.1020    -0.0600 o          1 24I      -0.788000
      2 C14          8.0570     0.9060     0.0210 c          1 24I       0.710000
      3 O6           8.7660     0.1260     0.6380 o          1 24I      -0.788000
      4 C13          6.7820     0.3640    -0.6510 c3         1 24I      -0.189400
      5 C12          5.5870     0.4280     0.3330 c3         1 24I      -0.025400
      6 C10          4.2260    -0.0100    -0.2790 c3         1 24I      -0.157700
      7 C9           4.2700    -1.4770    -0.8140 c          1 24I       0.734000
      8 O4           4.1110    -1.6590    -2.0130 o          1 24I      -0.764000
      9 O3           4.4880    -2.3880    -0.0270 o          1 24I      -0.764000
     10 C7           3.0460     0.2440     0.7220 c3         1 24I      -0.400400
     11 P1           1.3390    -0.1170     0.0930 p5         1 24I       1.379000
     12 O1           1.1090     0.5750    -1.2140 o          1 24I      -0.812000
     13 O2           1.0900    -1.5910     0.0370 o          1 24I      -0.812000
     14 C6           0.2790     0.6370     1.3870 c3         1 24I      -0.387100
     15 C8          -1.2110     0.4730     1.1560 ca         1 24I       0.050700
     16 C5          -1.8950    -0.6340     1.6940 ca         1 24I      -0.110500
     17 C3          -3.2780    -0.7830     1.4840 ca         1 24I      -0.093500
     18 C4          -1.9230     1.4320     0.4100 ca         1 24I      -0.110500
     19 C2          -3.3060     1.2840     0.2000 ca         1 24I      -0.093500
     20 C1          -3.9810     0.1760     0.7380 ca         1 24I       0.172000
     21 I           -6.1130    -0.0530     0.4160 i          1 24I      -0.441000
     22 H131         6.5040     0.9960    -1.5040 hc         1 24I       0.027200
     23 H132         6.9120    -0.6940    -0.9090 hc         1 24I       0.027200
     24 H121         5.8090    -0.1920     1.2110 hc         1 24I       0.010200
     25 H122         5.4930     1.4590     0.6970 hc         1 24I       0.010200
     26 H10          4.0440     0.6420    -1.1430 hc         1 24I       0.034700
     27 H7C1         3.1900    -0.3560     1.6280 hc         1 24I       0.018200
     28 H7C2         3.0480     1.2960     1.0290 hc         1 24I       0.018200
     29 H6C1         0.5810     0.1850     2.3380 hc         1 24I       0.050700
     30 H6C2         0.5520     1.6970     1.4350 hc         1 24I       0.050700
     31 H5          -1.3550    -1.3800     2.2720 ha         1 24I       0.127500
     32 H3          -3.8030    -1.6390     1.9000 ha         1 24I       0.095500
     33 HA          -1.4040     2.2920    -0.0080 ha         1 24I       0.127500
     34 H2          -3.8530     2.0250    -0.3760 ha         1 24I       0.095500
@<TRIPOS>BOND
     1     1     2 1   
     2     2     3 1   
     3     2     4 1   
     4     4     5 1   
     5     4    22 1   
     6     4    23 1   
     7     5     6 1   
     8     5    24 1   
     9     5    25 1   
    10     6     7 1   
    11     6    10 1   
    12     6    26 1   
    13     7     8 1   
    14     7     9 1   
    15    10    11 1   
    16    10    27 1   
    17    10    28 1   
    18    11    12 1   
    19    11    13 1   
    20    11    14 1   
    21    14    15 1   
    22    14    29 1   
    23    14    30 1   
    24    15    16 ar  
    25    15    18 ar  
    26    16    17 ar  
    27    16    31 1   
    28    17    20 ar  
    29    17    32 1   
    30    18    19 ar  
    31    18    33 1   
    32    19    20 ar  
    33    19    34 1   
    34    20    21 1   
@<TRIPOS>SUBSTRUCTURE
     1 24I         1 TEMP              0 ****  ****    0 ROOT
