@<TRIPOS>MOLECULE
24I
   34    34     1     0     0
SMALL
bcc


@<TRIPOS>ATOM
      1 O5           7.9930     1.6630     0.7360 o          1 24I      -0.893300
      2 C14          7.9660     0.9200    -0.2650 c          1 24I       0.920600
      3 O6           8.9410     0.6360    -0.9940 o          1 24I      -0.893300
      4 C13          6.6180     0.2950    -0.6690 c3         1 24I      -0.189400
      5 C12          5.4790     0.4710     0.3220 c3         1 24I      -0.025400
      6 C10          4.1320    -0.0580    -0.1790 c3         1 24I      -0.157700
      7 C9           4.2160    -1.5690    -0.4610 c          1 24I       0.944600
      8 O4           4.0820    -1.9500    -1.6420 o          1 24I      -0.869300
      9 O3           4.4530    -2.3040     0.5220 o          1 24I      -0.869300
     10 C7           3.0320     0.2620     0.8350 c3         1 24I      -0.242600
     11 P1           1.3390    -0.0540     0.2030 p5         1 24I       1.063400
     12 O1           1.1130     0.7690    -1.0500 o          1 24I      -0.812000
     13 O2           1.0490    -1.5390     0.1650 o          1 24I      -0.812000
     14 C6           0.2990     0.6890     1.5570 c3         1 24I      -0.229300
     15 C8          -1.1430     0.5210     1.2220 ca         1 24I       0.050700
     16 C5          -1.8450    -0.6170     1.6160 ca         1 24I      -0.128500
     17 C3          -3.1770    -0.8020     1.2730 ca         1 24I      -0.111500
     18 C4          -1.8110     1.4630     0.4410 ca         1 24I      -0.128500
     19 C2          -3.1430     1.2980     0.0860 ca         1 24I      -0.111500
     20 C1          -3.8180     0.1610     0.5070 ca         1 24I       0.034900
     21 I           -5.8410    -0.1030    -0.0190 i          1 24I      -0.303900
     22 H131         6.3260     0.7240    -1.6370 hc         1 24I       0.027200
     23 H132         6.7860    -0.7680    -0.8740 hc         1 24I       0.027200
     24 H121         5.7250    -0.0230     1.2660 hc         1 24I       0.010200
     25 H122         5.3700     1.5330     0.5570 hc         1 24I       0.010200
     26 H10          3.8920     0.4590    -1.1150 hc         1 24I       0.034700
     27 H7C1         3.2000    -0.3110     1.7510 hc         1 24I       0.018200
     28 H7C2         3.0920     1.3210     1.1130 hc         1 24I       0.018200
     29 H6C1         0.5410     0.1960     2.5010 hc         1 24I       0.050700
     30 H6C2         0.5540     1.7460     1.6620 hc         1 24I       0.050700
     31 H5          -1.3490    -1.3730     2.2120 ha         1 24I       0.145500
     32 H3          -3.6970    -1.6920     1.6030 ha         1 24I       0.113500
     33 HA          -1.2880     2.3500     0.1090 ha         1 24I       0.145500
     34 H2          -3.6350     2.0520    -0.5130 ha         1 24I       0.113500
@<TRIPOS>BOND
     1     1     2 1   
     2     2     3 1   
     3     2     4 1   
     4     4     5 1   
     5     4    22 1   
     6     4    23 1   
     7     5     6 1   
     8     5    24 1   
     9     5    25 1   
    10     6     7 1   
    11     6    10 1   
    12     6    26 1   
    13     7     8 1   
    14     7     9 1   
    15    10    11 1   
    16    10    27 1   
    17    10    28 1   
    18    11    12 1   
    19    11    13 1   
    20    11    14 1   
    21    14    15 1   
    22    14    29 1   
    23    14    30 1   
    24    15    16 ar  
    25    15    18 ar  
    26    16    17 ar  
    27    16    31 1   
    28    17    20 ar  
    29    17    32 1   
    30    18    19 ar  
    31    18    33 1   
    32    19    20 ar  
    33    19    34 1   
    34    20    21 1   
@<TRIPOS>SUBSTRUCTURE
     1 24I         1 TEMP              0 ****  ****    0 ROOT
