@<TRIPOS>MOLECULE
24K
   52    54     1     0     0
SMALL
bcc


@<TRIPOS>ATOM
      1 C01          7.9260    -1.2190    -0.0380 c3         1 24K      -0.089100
      2 C02          6.8480    -0.1450    -0.0510 c3         1 24K      -0.072400
      3 C03          5.4420    -0.7230     0.0640 c3         1 24K      -0.098400
      4 C04          4.3820     0.3650     0.0430 c3         1 24K       0.242800
      5 N05          3.0590    -0.2080     0.1500 nu         1 24K      -0.869900
      6 C06          1.9230     0.5040     0.1050 ca         1 24K       0.960900
      7 N07          2.0340     1.8290    -0.0500 nb         1 24K      -0.815000
      8 C08          0.8870     2.4900    -0.0700 ca         1 24K       0.521200
      9 C09         -0.3720     1.9280     0.0510 cp         1 24K      -0.536100
     10 C10         -0.3640     0.4960     0.1710 ca         1 24K       0.788200
     11 N11         -1.4980    -0.2040     0.2730 nu         1 24K      -0.862900
     12 C12         -1.5670    -1.6470     0.3470 c6         1 24K       0.240500
     13 C13         -1.4150    -2.3000    -1.0280 c6         1 24K      -0.089900
     14 C14         -1.5500    -3.8160    -0.9440 c6         1 24K      -0.090400
     15 C15         -2.8780    -4.2100    -0.3170 c6         1 24K       0.146100
     16 O16         -2.9340    -5.6210    -0.2560 oh         1 24K      -0.596800
     17 C17         -3.0250    -3.5700     1.0590 c6         1 24K      -0.090400
     18 C18         -2.8900    -2.0530     0.9910 c6         1 24K      -0.089900
     19 N19          0.7830    -0.1770     0.2050 nb         1 24K      -0.884000
     20 C20         -1.5790     2.7620     0.0460 cp         1 24K       0.539800
     21 C21         -1.5220     4.1460     0.2690 ca         1 24K      -0.256300
     22 C22         -2.6820     4.8920     0.2200 ca         1 24K      -0.077000
     23 C23         -3.8940     4.2580    -0.0310 ca         1 24K      -0.266300
     24 C24         -3.8700     2.8880    -0.2100 ca         1 24K       0.424200
     25 N25         -2.7560     2.1660    -0.1770 nb         1 24K      -0.735000
     26 H013         8.9220    -0.7840    -0.1100 hc         1 24K       0.033367
     27 H012         7.8880    -1.8050     0.8820 hc         1 24K       0.033367
     28 H011         7.8050    -1.9100    -0.8740 hc         1 24K       0.033367
     29 H021         7.0180     0.5570     0.7700 hc         1 24K       0.041200
     30 H022         6.9240     0.4410    -0.9720 hc         1 24K       0.041200
     31 H032         5.2670    -1.4220    -0.7600 hc         1 24K       0.044700
     32 H031         5.3600    -1.3020     0.9890 hc         1 24K       0.044700
     33 H042         4.5570     1.0670     0.8640 h1         1 24K       0.052200
     34 H041         4.4660     0.9440    -0.8810 h1         1 24K       0.052200
     35 H051         2.9660    -1.2050     0.2520 hn         1 24K       0.448800
     36 H081         0.9850     3.5620    -0.2110 h4         1 24K       0.011100
     37 H111        -2.3470     0.3290     0.1050 hn         1 24K       0.480800
     38 H121        -0.7500    -1.9940     0.9850 h1         1 24K       0.077700
     39 H131        -2.1800    -1.8930    -1.6980 hc         1 24K       0.049700
     40 H132        -0.4460    -2.0330    -1.4530 hc         1 24K       0.049700
     41 H142        -1.4610    -4.2520    -1.9430 hc         1 24K       0.050700
     42 H141        -0.7310    -4.2260    -0.3430 hc         1 24K       0.050700
     43 H151        -3.6840    -3.8220    -0.9600 h1         1 24K       0.026700
     44 H161        -3.7850    -5.8730     0.1160 ho         1 24K       0.401000
     45 H172        -3.9970    -3.8320     1.4910 hc         1 24K       0.050700
     46 H171        -2.2610    -3.9820     1.7270 hc         1 24K       0.050700
     47 H181        -2.9640    -1.6270     1.9940 hc         1 24K       0.049700
     48 H182        -3.7210    -1.6370     0.4090 hc         1 24K       0.049700
     49 H211        -0.5870     4.6380     0.4970 ha         1 24K       0.141000
     50 H221        -2.6440     5.9600     0.3870 ha         1 24K       0.135000
     51 H231        -4.8250     4.8060    -0.0720 ha         1 24K       0.142000
     52 H241        -4.7870     2.3400    -0.3940 h4         1 24K       0.014100
@<TRIPOS>BOND
     1     1     2 1   
     2     1    26 1   
     3     1    27 1   
     4     1    28 1   
     5     2     3 1   
     6     2    29 1   
     7     2    30 1   
     8     3     4 1   
     9     3    31 1   
    10     3    32 1   
    11     4     5 1   
    12     4    33 1   
    13     4    34 1   
    14     5     6 1   
    15     5    35 1   
    16     6     7 ar  
    17     6    19 ar  
    18     7     8 ar  
    19     8     9 ar  
    20     8    36 1   
    21     9    10 ar  
    22     9    20 1   
    23    10    11 1   
    24    10    19 ar  
    25    11    12 1   
    26    11    37 1   
    27    12    13 1   
    28    12    18 1   
    29    12    38 1   
    30    13    14 1   
    31    13    39 1   
    32    13    40 1   
    33    14    15 1   
    34    14    41 1   
    35    14    42 1   
    36    15    16 1   
    37    15    17 1   
    38    15    43 1   
    39    16    44 1   
    40    17    18 1   
    41    17    45 1   
    42    17    46 1   
    43    18    47 1   
    44    18    48 1   
    45    20    21 ar  
    46    20    25 ar  
    47    21    22 ar  
    48    21    49 1   
    49    22    23 ar  
    50    22    50 1   
    51    23    24 ar  
    52    23    51 1   
    53    24    25 ar  
    54    24    52 1   
@<TRIPOS>SUBSTRUCTURE
     1 24K         1 TEMP              0 ****  ****    0 ROOT
