@<TRIPOS>MOLECULE
24K
   52    54     1     0     0
SMALL
No Charge or Current Charge


@<TRIPOS>ATOM
      1 C01          8.0670    -1.3400     0.0430 c3         1 24K      -0.089100
      2 C02          7.0260    -0.2140    -0.1060 c3         1 24K      -0.072400
      3 C03          5.5750    -0.6990     0.1070 c3         1 24K      -0.098400
      4 C04          4.5360     0.4310    -0.0420 c3         1 24K       0.242800
      5 N05          3.1770    -0.0890     0.1710 nu         1 24K      -0.925100
      6 C06          1.9900     0.6160     0.1180 ca         1 24K       0.434900
      7 N07          2.0470     1.9270    -0.1530 nb         1 24K      -0.289000
      8 C08          0.8720     2.5760    -0.1910 ca         1 24K       0.192900
      9 C09         -0.3640     1.9290     0.0350 cp         1 24K      -0.405500
     10 C10         -0.2740     0.5430     0.3010 ca         1 24K       0.459900
     11 N11         -1.4090    -0.2000     0.5530 nu         1 24K      -0.918100
     12 C12         -1.5180    -1.6650     0.4940 c6         1 24K       0.240500
     13 C13         -1.5070    -2.1420    -0.9840 c6         1 24K      -0.089900
     14 C14         -1.7160    -3.6750    -1.0810 c6         1 24K      -0.090400
     15 C15         -3.0250    -4.1130    -0.3770 c6         1 24K       0.169300
     16 O16         -3.1510    -5.5350    -0.4300 oh         1 24K      -0.659000
     17 C17         -3.0400    -3.6330     1.0980 c6         1 24K      -0.090400
     18 C18         -2.8310    -2.0990     1.1930 c6         1 24K      -0.089900
     19 N19          0.8960    -0.1100     0.3500 nb         1 24K      -0.358000
     20 C20         -1.6390     2.7110    -0.0040 cp         1 24K       0.474500
     21 C21         -1.6800     4.0840     0.3450 ca         1 24K      -0.173000
     22 C22         -2.8900     4.7920     0.2790 ca         1 24K      -0.059000
     23 C23         -4.0340     4.0990    -0.1400 ca         1 24K      -0.183000
     24 C24         -3.9250     2.7390    -0.4670 ca         1 24K       0.358900
     25 N25         -2.7580     2.0590    -0.3960 nb         1 24K      -0.735000
     26 H013         9.0790    -0.9490    -0.1170 hc         1 24K       0.033367
     27 H012         8.0240    -1.7790     1.0470 hc         1 24K       0.033367
     28 H011         7.8870    -2.1350    -0.6910 hc         1 24K       0.033367
     29 H021         7.2540     0.5800     0.6160 hc         1 24K       0.041200
     30 H022         7.1190     0.2280    -1.1060 hc         1 24K       0.041200
     31 H032         5.3520    -1.4920    -0.6170 hc         1 24K       0.044700
     32 H031         5.4870    -1.1390     1.1090 hc         1 24K       0.044700
     33 H042         4.7550     1.2230     0.6880 h1         1 24K       0.052200
     34 H041         4.6190     0.8680    -1.0480 h1         1 24K       0.052200
     35 H051         3.0770    -1.0810     0.3820 hn         1 24K       0.504000
     36 H081         0.9250     3.6390    -0.4220 h4         1 24K       0.011100
     37 H111        -2.2430     0.3490     0.3140 hn         1 24K       0.536000
     38 H121        -0.6780    -2.1370     1.0300 h1         1 24K       0.077700
     39 H131        -2.2970    -1.6280    -1.5490 hc         1 24K       0.049700
     40 H132        -0.5550    -1.8720    -1.4610 hc         1 24K       0.049700
     41 H142        -1.7420    -3.9780    -2.1370 hc         1 24K       0.050700
     42 H141        -0.8570    -4.1920    -0.6290 hc         1 24K       0.050700
     43 H151        -3.8720    -3.6470    -0.9020 h1         1 24K       0.026700
     44 H161        -4.0270    -5.7550    -0.0440 ho         1 24K       0.440000
     45 H172        -3.9940    -3.9040     1.5710 hc         1 24K       0.050700
     46 H171        -2.2520    -4.1470     1.6660 hc         1 24K       0.050700
     47 H181        -2.8100    -1.7960     2.2480 hc         1 24K       0.049700
     48 H182        -3.6890    -1.5860     0.7360 hc         1 24K       0.049700
     49 H211        -0.7810     4.5930     0.6760 ha         1 24K       0.123000
     50 H221        -2.9380     5.8470     0.5450 ha         1 24K       0.117000
     51 H231        -4.9950     4.6000    -0.2100 ha         1 24K       0.124000
     52 H241        -4.7980     2.1740    -0.7910 h4         1 24K       0.014100
@<TRIPOS>BOND
     1     1     2 1   
     2     1    26 1   
     3     1    27 1   
     4     1    28 1   
     5     2     3 1   
     6     2    29 1   
     7     2    30 1   
     8     3     4 1   
     9     3    31 1   
    10     3    32 1   
    11     4     5 1   
    12     4    33 1   
    13     4    34 1   
    14     5     6 1   
    15     5    35 1   
    16     6     7 ar  
    17     6    19 ar  
    18     7     8 ar  
    19     8     9 ar  
    20     8    36 1   
    21     9    10 ar  
    22     9    20 1   
    23    10    11 1   
    24    10    19 ar  
    25    11    12 1   
    26    11    37 1   
    27    12    13 1   
    28    12    18 1   
    29    12    38 1   
    30    13    14 1   
    31    13    39 1   
    32    13    40 1   
    33    14    15 1   
    34    14    41 1   
    35    14    42 1   
    36    15    16 1   
    37    15    17 1   
    38    15    43 1   
    39    16    44 1   
    40    17    18 1   
    41    17    45 1   
    42    17    46 1   
    43    18    47 1   
    44    18    48 1   
    45    20    21 ar  
    46    20    25 ar  
    47    21    22 ar  
    48    21    49 1   
    49    22    23 ar  
    50    22    50 1   
    51    23    24 ar  
    52    23    51 1   
    53    24    25 ar  
    54    24    52 1   
@<TRIPOS>SUBSTRUCTURE
     1 24K         1 TEMP              0 ****  ****    0 ROOT
