@<TRIPOS>MOLECULE
24L
   70    74     1     0     0
SMALL
No Charge or Current Charge


@<TRIPOS>ATOM
      1 C1           6.5120    -1.8360    -2.6680 c3         1 24L      -0.184100
      2 C2           5.1430    -2.4760    -2.4120 c          1 24L       0.614300
      3 O3           4.9360    -3.5780    -2.9010 o          1 24L      -0.530100
      4 C4           4.1260    -1.7680    -1.5520 ce         1 24L      -0.421400
      5 C5           4.2940    -0.2940    -1.2810 c          1 24L       0.646300
      6 C6           3.6190     0.1550     0.0470 c5         1 24L      -0.104500
      7 C7           2.2550    -0.4980     0.1700 c2         1 24L       0.181900
      8 C8           2.0070    -1.7220    -0.2990 cf         1 24L      -0.355000
      9 C9           3.0350    -2.4170    -1.0350 cf         1 24L       0.315100
     10 O10          1.3560     0.4020     0.6710 os         1 24L      -0.179200
     11 C11          1.8620     1.6640     0.5800 ca         1 24L       0.186100
     12 C12          3.1690     1.6140     0.1440 ca         1 24L      -0.300300
     13 C13          3.8830     2.7940    -0.0620 ca         1 24L       0.278100
     14 C14          3.2660     4.0170     0.2160 ca         1 24L      -0.285000
     15 C15          1.9280     4.0680     0.6870 ca         1 24L       0.250100
     16 C16          1.1930     2.8690     0.8660 ca         1 24L      -0.230600
     17 C17          4.5280    -0.2310     1.2430 c3         1 24L      -0.072100
     18 O18          4.9350     0.4730    -1.9890 o          1 24L      -0.580100
     19 O19          2.7960    -3.7200    -1.2050 oh         1 24L      -0.476100
     20 O20          5.1460     2.7620    -0.5520 oh         1 24L      -0.544100
     21 O21          1.3090     5.2790     0.9280 os         1 24L      -0.313100
     22 C22          1.9770     6.5430     0.7690 c3         1 24L       0.146900
     23 C23         -0.2360     2.8750     1.3470 c          1 24L       0.641700
     24 O24         -0.7070     3.7430     2.0700 o          1 24L      -0.593100
     25 N25         -0.9880     1.7900     0.9720 ns         1 24L      -0.495900
     26 C26         -2.3300     1.4820     1.4500 c3         1 24L       0.150300
     27 C27         -2.8110     0.1650     0.8470 ca         1 24L      -0.118300
     28 C28         -2.2180    -1.0840     1.1770 ca         1 24L      -0.027000
     29 C29         -2.6810    -2.2630     0.5430 ca         1 24L      -0.035000
     30 C30         -3.7270    -2.2000    -0.3950 ca         1 24L      -0.108000
     31 C31         -4.3190    -0.9680    -0.7180 ca         1 24L      -0.042300
     32 C32         -3.8560     0.2050    -0.0980 ca         1 24L      -0.073000
     33 C33         -2.0970    -3.5090     0.8430 ca         1 24L      -0.105000
     34 C34         -1.0500    -3.5950     1.7730 ca         1 24L      -0.132000
     35 C35         -0.5880    -2.4350     2.4120 ca         1 24L      -0.131000
     36 C36         -1.1680    -1.1890     2.1220 ca         1 24L      -0.085000
     37 C37         -5.4530    -0.9050    -1.7330 c3         1 24L      -0.049100
     38 C38         -6.8370    -1.0620    -1.0680 c3         1 24L      -0.049400
     39 C39         -8.0110    -1.0020    -2.0760 c3         1 24L      -0.207400
     40 C40         -9.3520    -1.1670    -1.3390 c          1 24L       0.718000
     41 O41         -9.7840    -2.2980    -1.1740 o          1 24L      -0.739000
     42 O42         -9.9010    -0.1640    -0.9100 o          1 24L      -0.739000
     43 H1           7.2440    -2.5650    -3.0340 hc         1 24L       0.058700
     44 H1A          6.3940    -1.0410    -3.4120 hc         1 24L       0.058700
     45 H1B          6.8660    -1.3170    -1.7710 hc         1 24L       0.058700
     46 H14          3.8390     4.9220     0.0470 ha         1 24L       0.139000
     47 H17          5.4930     0.2880     1.1930 hc         1 24L       0.055700
     48 H17A         4.0590     0.0340     2.1990 hc         1 24L       0.055700
     49 H17B         4.7310    -1.3090     1.2650 hc         1 24L       0.055700
     50 HO19         1.9940    -3.9350    -0.6890 ho         1 24L       0.487000
     51 HO20         5.2130     1.9310    -1.0860 ho         1 24L       0.517000
     52 H22          1.2990     7.3660     1.0260 h1         1 24L       0.046700
     53 H22A         2.8530     6.6080     1.4270 h1         1 24L       0.046700
     54 H22B         2.3030     6.6850    -0.2700 h1         1 24L       0.046700
     55 HN25        -0.5240     1.1030     0.3920 hn         1 24L       0.319500
     56 H26         -2.3230     1.4150     2.5460 h1         1 24L       0.063200
     57 H26A        -3.0040     2.3030     1.1680 h1         1 24L       0.063200
     58 H30         -4.0810    -3.1090    -0.8740 ha         1 24L       0.115000
     59 H32         -4.3120     1.1580    -0.3590 ha         1 24L       0.123000
     60 H33         -2.4530    -4.4130     0.3530 ha         1 24L       0.109000
     61 H34         -0.6020    -4.5590     2.0010 ha         1 24L       0.101000
     62 H35          0.2210    -2.5010     3.1370 ha         1 24L       0.105000
     63 H36         -0.7870    -0.3150     2.6410 ha         1 24L       0.120000
     64 H37         -5.4190     0.0480    -2.2750 hc         1 24L       0.039700
     65 H37A        -5.3250    -1.6900    -2.4890 hc         1 24L       0.039700
     66 H38         -6.8700    -2.0190    -0.5320 hc         1 24L       0.044200
     67 H38A        -6.9650    -0.2730    -0.3170 hc         1 24L       0.044200
     68 H39         -7.9510    -0.0130    -2.5480 hc         1 24L       0.015700
     69 H39A        -7.8510    -1.8340    -2.7730 hc         1 24L       0.015700
     70 H8           1.0020    -2.1390    -0.2210 ha         1 24L       0.232000
@<TRIPOS>BOND
     1     1     2 1   
     2     1    43 1   
     3     1    44 1   
     4     1    45 1   
     5     2     3 2   
     6     2     4 1   
     7     4     5 1   
     8     4     9 2   
     9     5     6 1   
    10     5    18 2   
    11     6     7 1   
    12     6    12 1   
    13     6    17 1   
    14     7     8 2   
    15     7    10 1   
    16     8     9 1   
    17     8    70 1   
    18     9    19 1   
    19    10    11 1   
    20    11    12 ar  
    21    11    16 ar  
    22    12    13 ar  
    23    13    14 ar  
    24    13    20 1   
    25    14    15 ar  
    26    14    46 1   
    27    15    16 ar  
    28    15    21 1   
    29    16    23 1   
    30    17    47 1   
    31    17    48 1   
    32    17    49 1   
    33    19    50 1   
    34    20    51 1   
    35    21    22 1   
    36    22    52 1   
    37    22    53 1   
    38    22    54 1   
    39    23    24 2   
    40    23    25 1   
    41    25    26 1   
    42    25    55 1   
    43    26    27 1   
    44    26    56 1   
    45    26    57 1   
    46    27    28 ar  
    47    27    32 ar  
    48    28    29 ar  
    49    28    36 ar  
    50    29    30 ar  
    51    29    33 ar  
    52    30    31 ar  
    53    30    58 1   
    54    31    32 ar  
    55    31    37 1   
    56    32    59 1   
    57    33    34 ar  
    58    33    60 1   
    59    34    35 ar  
    60    34    61 1   
    61    35    36 ar  
    62    35    62 1   
    63    36    63 1   
    64    37    38 1   
    65    37    64 1   
    66    37    65 1   
    67    38    39 1   
    68    38    66 1   
    69    38    67 1   
    70    39    40 1   
    71    39    68 1   
    72    39    69 1   
    73    40    41 1   
    74    40    42 1   
@<TRIPOS>SUBSTRUCTURE
     1 24L         1 TEMP              0 ****  ****    0 ROOT
