@<TRIPOS>MOLECULE
24M
   38    38     1     0     0
SMALL
No Charge or Current Charge


@<TRIPOS>ATOM
      1 N1          -2.0280     1.8200     0.1890 n8         1 24M      -1.034200
      2 C3          -1.6080     0.3950     0.0310 c3         1 24M       0.128500
      3 C5          -0.2630     0.3110    -0.7660 c3         1 24M       0.184300
      4 O7          -0.3240     1.3910    -1.6970 oh         1 24M      -0.666000
      5 C9           1.0210     0.4220     0.1180 c5         1 24M      -0.072700
      6 C11          2.3750     0.3550    -0.6560 c5         1 24M      -0.177700
      7 C13          3.4250     0.6620     0.4630 c5         1 24M      -0.063400
      8 C16          2.6470     1.5130     1.5200 c5         1 24M      -0.080400
      9 C19          1.2480     1.7540     0.8870 c5         1 24M      -0.077400
     10 C22          2.6100    -1.0480    -1.2890 c          1 24M       0.720000
     11 O23          2.5430    -2.0510    -0.5920 o          1 24M      -0.741000
     12 C36         -2.7440    -0.4090    -0.6610 c3         1 24M      -0.084400
     13 C39         -4.1070    -0.4670     0.0910 c3         1 24M      -0.063700
     14 C41         -5.1720    -1.1980    -0.7590 c3         1 24M      -0.087100
     15 C45         -3.9920    -1.1130     1.4930 c3         1 24M      -0.087100
     16 HN1         -2.9750     1.8370     0.5860 hn         1 24M       0.397500
     17 H3          -1.4480    -0.0330     1.0300 h1         1 24M       0.034700
     18 H5          -0.2200    -0.6550    -1.2890 h1         1 24M       0.091700
     19 HO7         -1.0360     1.9310    -1.2590 ho         1 24M       0.450000
     20 H9           0.9520    -0.4070     0.8350 hc         1 24M       0.060700
     21 H11          2.4300     1.1150    -1.4440 hc         1 24M       0.050700
     22 H131         3.8160    -0.2500     0.9280 hc         1 24M       0.037200
     23 H132         4.2890     1.2010     0.0590 hc         1 24M       0.037200
     24 H161         2.5560     0.9640     2.4640 hc         1 24M       0.014700
     25 H162         3.1570     2.4560     1.7480 hc         1 24M       0.014700
     26 H191         1.2570     2.6230     0.2180 hc         1 24M       0.015700
     27 H192         0.4850     1.9370     1.6520 hc         1 24M       0.015700
     28 H361        -2.9100     0.0120    -1.6620 hc         1 24M       0.057700
     29 H362        -2.3950    -1.4370    -0.8190 hc         1 24M       0.057700
     30 H39         -4.4690     0.5590     0.2310 hc         1 24M       0.030700
     31 H411        -4.8840    -2.2420    -0.9340 hc         1 24M       0.029367
     32 H412        -6.1450    -1.1910    -0.2530 hc         1 24M       0.029367
     33 H413        -5.2960    -0.7080    -1.7320 hc         1 24M       0.029367
     34 H451        -3.3480    -0.5210     2.1530 hc         1 24M       0.029367
     35 H452        -4.9780    -1.1790     1.9700 hc         1 24M       0.029367
     36 H453        -3.5790    -2.1270     1.4240 hc         1 24M       0.029367
     37 H2          -1.4570     2.2510     0.9270 hn         1 24M       0.397500
     38 OXT          2.8430    -1.1170    -2.4860 o          1 24M      -0.741000
@<TRIPOS>BOND
     1     1     2 1   
     2     1    16 1   
     3     1    37 1   
     4     2     3 1   
     5     2    12 1   
     6     2    17 1   
     7     3     4 1   
     8     3     5 1   
     9     3    18 1   
    10     4    19 1   
    11     5     6 1   
    12     5     9 1   
    13     5    20 1   
    14     6     7 1   
    15     6    10 1   
    16     6    21 1   
    17     7     8 1   
    18     7    22 1   
    19     7    23 1   
    20     8     9 1   
    21     8    24 1   
    22     8    25 1   
    23     9    26 1   
    24     9    27 1   
    25    10    11 1   
    26    10    38 1   
    27    12    13 1   
    28    12    28 1   
    29    12    29 1   
    30    13    14 1   
    31    13    15 1   
    32    13    30 1   
    33    14    31 1   
    34    14    32 1   
    35    14    33 1   
    36    15    34 1   
    37    15    35 1   
    38    15    36 1   
@<TRIPOS>SUBSTRUCTURE
     1 24M         1 TEMP              0 ****  ****    0 ROOT
