@<TRIPOS>MOLECULE
24M
   38    38     1     0     0
SMALL
abcg2


@<TRIPOS>ATOM
      1 N1          -1.9460     1.7880     0.3410 n8         1 24M      -1.034200
      2 C3          -1.6020     0.3860     0.1120 c3         1 24M       0.128500
      3 C5          -0.2910     0.3470    -0.7140 c3         1 24M       0.184300
      4 O7          -0.3220     1.3750    -1.6770 oh         1 24M      -0.666000
      5 C9           0.9620     0.3900     0.1590 c5         1 24M      -0.072700
      6 C11          2.2740     0.2500    -0.6090 c5         1 24M      -0.177700
      7 C13          3.3120     0.5820     0.4700 c5         1 24M      -0.063400
      8 C16          2.6870     1.7340     1.2730 c5         1 24M      -0.080400
      9 C19          1.1690     1.6590     0.9970 c5         1 24M      -0.077400
     10 C22          2.5460    -1.1110    -1.2620 c          1 24M       0.720000
     11 O23          2.0190    -2.1190    -0.7450 o          1 24M      -0.741000
     12 C36         -2.7290    -0.3200    -0.6380 c3         1 24M      -0.084400
     13 C39         -4.0690    -0.4400     0.0940 c3         1 24M      -0.063700
     14 C41         -5.0740    -1.1620    -0.7990 c3         1 24M      -0.087100
     15 C45         -3.9340    -1.1600     1.4320 c3         1 24M      -0.087100
     16 HN1         -2.9330     1.9030     0.5240 hn         1 24M       0.397500
     17 H3          -1.4160    -0.1500     1.0510 h1         1 24M       0.034700
     18 H5          -0.2640    -0.6130    -1.2450 h1         1 24M       0.091700
     19 HO7         -0.9060     2.0430    -1.2730 ho         1 24M       0.450000
     20 H9           0.8940    -0.4700     0.8370 hc         1 24M       0.060700
     21 H11          2.3210     1.0300    -1.3800 hc         1 24M       0.050700
     22 H131         3.4480    -0.2930     1.1130 hc         1 24M       0.037200
     23 H132         4.2910     0.8340     0.0590 hc         1 24M       0.037200
     24 H161         2.9150     1.6520     2.3370 hc         1 24M       0.014700
     25 H162         3.0880     2.6940     0.9430 hc         1 24M       0.014700
     26 H191         0.8480     2.5420     0.4390 hc         1 24M       0.015700
     27 H192         0.5850     1.6400     1.9210 hc         1 24M       0.015700
     28 H361        -2.8900     0.1880    -1.5960 hc         1 24M       0.057700
     29 H362        -2.3850    -1.3310    -0.8840 hc         1 24M       0.057700
     30 H39         -4.4700     0.5630     0.2860 hc         1 24M       0.030700
     31 H411        -4.7290    -2.1720    -1.0310 hc         1 24M       0.029367
     32 H412        -6.0470    -1.2490    -0.3120 hc         1 24M       0.029367
     33 H413        -5.2210    -0.6370    -1.7440 hc         1 24M       0.029367
     34 H451        -3.2870    -0.6260     2.1290 hc         1 24M       0.029367
     35 H452        -4.9070    -1.2730     1.9140 hc         1 24M       0.029367
     36 H453        -3.5180    -2.1610     1.2940 hc         1 24M       0.029367
     37 H2          -1.4600     2.1560     1.1480 hn         1 24M       0.397500
     38 OXT          3.3180    -1.1130    -2.2450 o          1 24M      -0.741000
@<TRIPOS>BOND
     1     1     2 1   
     2     1    16 1   
     3     1    37 1   
     4     2     3 1   
     5     2    12 1   
     6     2    17 1   
     7     3     4 1   
     8     3     5 1   
     9     3    18 1   
    10     4    19 1   
    11     5     6 1   
    12     5     9 1   
    13     5    20 1   
    14     6     7 1   
    15     6    10 1   
    16     6    21 1   
    17     7     8 1   
    18     7    22 1   
    19     7    23 1   
    20     8     9 1   
    21     8    24 1   
    22     8    25 1   
    23     9    26 1   
    24     9    27 1   
    25    10    11 1   
    26    10    38 1   
    27    12    13 1   
    28    12    28 1   
    29    12    29 1   
    30    13    14 1   
    31    13    15 1   
    32    13    30 1   
    33    14    31 1   
    34    14    32 1   
    35    14    33 1   
    36    15    34 1   
    37    15    35 1   
    38    15    36 1   
@<TRIPOS>SUBSTRUCTURE
     1 24M         1 TEMP              0 ****  ****    0 ROOT
