@<TRIPOS>MOLECULE
24N
   60    64     1     0     0
SMALL
No Charge or Current Charge


@<TRIPOS>ATOM
      1 C4         -24.1950    -9.1550     4.2570 ca         1 24N       0.167500
      2 C5         -24.2290    -7.9050     4.8210 ca         1 24N      -0.370900
      3 C6         -23.5000    -6.8830     4.2020 ca         1 24N       0.461900
      4 N1         -22.8020    -7.1140     3.0810 nb         1 24N      -0.317000
      5 N3         -23.5030    -9.4220     3.1340 nb         1 24N      -0.250000
      6 C2         -22.8390    -8.3760     2.5970 ca         1 24N       0.200900
      7 CAI        -25.0840    -8.0070     6.0070 cc         1 24N       0.367900
      8 CAK        -25.4720    -6.9590     6.9450 cc         1 24N       0.208700
      9 CAL        -25.2010   -11.3900     4.8260 c6         1 24N       0.086300
     10 CAM        -26.6700   -11.6600     4.3970 c6         1 24N      -0.084400
     11 CAN        -26.9160   -13.1780     4.1960 c6         1 24N      -0.099400
     12 CAO        -26.4930   -13.9810     5.4510 c6         1 24N       0.089000
     13 CAQ        -24.8340   -12.2430     6.0690 c6         1 24N       0.086000
     14 CAT        -22.6040   -14.2800     6.0380 c3         1 24N      -0.152400
     15 CAU        -26.2770    -7.2180     8.0150 cd         1 24N      -0.146000
     16 CAZ        -28.6830    -5.4650     9.6140 c3         1 24N       0.217300
     17 CBA        -29.3800    -5.1170    10.9360 ca         1 24N      -0.170300
     18 CBB        -29.8860    -6.1380    11.7720 ca         1 24N      -0.073500
     19 CBC        -30.5100    -5.8190    12.9900 ca         1 24N      -0.111500
     20 CBD        -30.6320    -4.4790    13.3900 ca         1 24N      -0.084000
     21 CBE        -30.1250    -3.4570    12.5710 ca         1 24N      -0.111500
     22 CBF        -29.5000    -3.7730    11.3520 ca         1 24N      -0.073500
     23 CBI        -21.5600   -15.4180     5.9550 c3         1 24N      -0.076100
     24 FBG        -28.8670    -4.4890     8.6920 f          1 24N      -0.105500
     25 FBH        -29.2020    -6.5910     9.0690 f          1 24N      -0.105500
     26 NAG        -24.9710    -9.9450     5.0760 na         1 24N      -0.031100
     27 NAH        -25.5240    -9.2710     6.1530 nd         1 24N      -0.540100
     28 NAJ        -23.4050    -5.6210     4.6530 nv         1 24N      -1.062900
     29 NAP        -25.0760   -13.6930     5.8070 n          1 24N      -0.414800
     30 NAV        -26.4080    -5.9900     8.6220 na         1 24N       0.112800
     31 NAW        -25.6990    -5.0370     7.9360 nd         1 24N      -0.178800
     32 NAX        -25.1350    -5.6320     6.9150 nc         1 24N      -0.383000
     33 OAS        -24.3170   -15.7910     5.2680 o          1 24N      -0.605100
     34 H1         -22.2730    -8.5690     1.6870 h5         1 24N       0.046100
     35 H2         -24.5440   -11.7080     4.0040 h1         1 24N       0.091700
     36 H3         -26.8970   -11.1170     3.4700 hc         1 24N       0.059700
     37 H4         -27.3590   -11.2760     5.1630 hc         1 24N       0.059700
     38 H5         -27.9770   -13.3610     3.9760 hc         1 24N       0.055200
     39 H6         -26.3480   -13.5340     3.3260 hc         1 24N       0.055200
     40 H7         -27.1370   -13.7040     6.2980 h1         1 24N       0.065200
     41 H8         -26.6470   -15.0540     5.2690 h1         1 24N       0.065200
     42 H9         -23.7950   -12.0400     6.3510 h1         1 24N       0.064200
     43 H10        -25.4570   -11.9330     6.9200 h1         1 24N       0.064200
     44 H11        -22.3080   -13.4290     5.4150 hc         1 24N       0.059200
     45 H12        -22.6200   -13.8270     7.0360 hc         1 24N       0.059200
     46 H13        -26.7420    -8.1290     8.3660 h4         1 24N       0.185000
     47 H14        -27.0190    -6.4750    10.5650 h1         1 24N       0.096700
     48 H15        -26.7500    -4.7530    10.2810 h1         1 24N       0.096700
     49 H16        -29.7950    -7.1840    11.4840 ha         1 24N       0.127500
     50 H17        -30.8980    -6.6120    13.6250 ha         1 24N       0.122500
     51 H18        -31.1150    -4.2330    14.3340 ha         1 24N       0.121000
     52 H19        -30.2150    -2.4180    12.8820 ha         1 24N       0.122500
     53 H20        -29.1080    -2.9660    10.7360 ha         1 24N       0.127500
     54 H21        -20.5680   -15.0480     6.2420 hc         1 24N       0.042367
     55 H22        -21.8270   -16.2400     6.6300 hc         1 24N       0.042367
     56 H23        -21.4950   -15.8120     4.9340 hc         1 24N       0.042367
     57 H24        -23.0680    -4.9040     4.0160 hn         1 24N       0.522500
     58 H25        -24.0310    -5.3230     5.3990 hn         1 24N       0.522500
     59 CAR        -24.0520   -14.6620     5.6620 c          1 24N       0.600100
     60 CAY        -27.1680    -5.6660     9.8400 c3         1 24N       0.032600
@<TRIPOS>BOND
     1     1     2 ar  
     2     1     5 ar  
     3     1    26 1   
     4     2     3 ar  
     5     2     7 1   
     6     3     4 ar  
     7     3    28 1   
     8     4     6 ar  
     9     5     6 ar  
    10     6    34 1   
    11     7     8 1   
    12     7    27 2   
    13     8    15 2   
    14     8    32 1   
    15     9    10 1   
    16     9    13 1   
    17     9    26 1   
    18     9    35 1   
    19    10    11 1   
    20    10    36 1   
    21    10    37 1   
    22    11    12 1   
    23    11    38 1   
    24    11    39 1   
    25    12    29 1   
    26    12    40 1   
    27    12    41 1   
    28    13    29 1   
    29    13    42 1   
    30    13    43 1   
    31    14    23 1   
    32    14    44 1   
    33    14    45 1   
    34    14    59 1   
    35    15    30 1   
    36    15    46 1   
    37    16    17 1   
    38    16    24 1   
    39    16    25 1   
    40    16    60 1   
    41    17    18 ar  
    42    17    22 ar  
    43    18    19 ar  
    44    18    49 1   
    45    19    20 ar  
    46    19    50 1   
    47    20    21 ar  
    48    20    51 1   
    49    21    22 ar  
    50    21    52 1   
    51    22    53 1   
    52    23    54 1   
    53    23    55 1   
    54    23    56 1   
    55    26    27 1   
    56    28    57 1   
    57    28    58 1   
    58    29    59 1   
    59    30    31 1   
    60    30    60 1   
    61    31    32 2   
    62    33    59 2   
    63    47    60 1   
    64    48    60 1   
@<TRIPOS>SUBSTRUCTURE
     1 24N         1 TEMP              0 ****  ****    0 ROOT
