@<TRIPOS>MOLECULE
24O
   37    37     1     0     0
SMALL
bcc


@<TRIPOS>ATOM
      1 N           -2.6490    -1.1690     1.6450 n8         1 24O      -0.891800
      2 C41         -1.7690    -0.6580     0.6010 c3         1 24O       0.125500
      3 C43         -0.3210    -0.4660     1.0930 c3         1 24O       0.108100
      4 O45          0.1700    -1.6760     1.6540 oh         1 24O      -0.609800
      5 C47          0.6490     0.0980     0.0520 c5         1 24O      -0.072700
      6 C49          2.0500     0.3960     0.6330 c5         1 24O      -0.189700
      7 C51          2.8430    -0.9010     0.4810 c5         1 24O      -0.163400
      8 C54          2.1260    -1.6950    -0.5840 c          1 24O       0.585100
      9 C55          0.9440    -0.8930    -1.0750 c5         1 24O      -0.194400
     10 O58          2.4500    -2.7910    -0.9850 o          1 24O      -0.581100
     11 C59          2.7340     1.6150    -0.0460 c          1 24O       0.926600
     12 O60          1.9910     2.5470    -0.4140 o          1 24O      -0.834300
     13 C92         -2.3560     0.6310     0.0270 c3         1 24O      -0.067400
     14 C95         -3.8260     0.5550    -0.3900 c3         1 24O      -0.053700
     15 C97         -4.2950     1.9240    -0.8740 c3         1 24O      -0.085600
     16 C98         -4.0530    -0.4990    -1.4680 c3         1 24O      -0.085600
     17 H39         -2.2260    -1.9750     2.0870 hn         1 24O       0.335300
     18 H41         -1.7510    -1.4120    -0.1980 h1         1 24O       0.054700
     19 H43         -0.3530     0.2460     1.9280 h1         1 24O       0.065700
     20 H45         -0.0150    -2.4010     1.0460 ho         1 24O       0.395000
     21 H47          0.2330     1.0270    -0.3330 hc         1 24O       0.096700
     22 H49          1.9610     0.6680     1.6920 hc         1 24O       0.045700
     23 H511         3.8800    -0.7280     0.1900 hc         1 24O       0.073200
     24 H512         2.8670    -1.4950     1.3970 hc         1 24O       0.073200
     25 H551         0.1140    -1.5250    -1.3970 hc         1 24O       0.060700
     26 H552         1.2800    -0.3500    -1.9670 hc         1 24O       0.060700
     27 H921        -2.2330     1.4300     0.7690 hc         1 24O       0.050700
     28 H922        -1.7740     0.9380    -0.8470 hc         1 24O       0.050700
     29 H95         -4.4200     0.2790     0.4860 hc         1 24O       0.052700
     30 H971        -3.7260     2.2440    -1.7500 hc         1 24O       0.027700
     31 H972        -5.3500     1.9060    -1.1540 hc         1 24O       0.027700
     32 H973        -4.1690     2.6860    -0.1020 hc         1 24O       0.027700
     33 H981        -3.7850    -1.4990    -1.1250 hc         1 24O       0.027700
     34 H982        -5.1000    -0.5270    -1.7760 hc         1 24O       0.027700
     35 H983        -3.4560    -0.2790    -2.3580 hc         1 24O       0.027700
     36 H2          -2.7370    -0.4720     2.3770 hn         1 24O       0.335300
     37 OXT          3.9780     1.5950    -0.1250 o          1 24O      -0.834300
@<TRIPOS>BOND
     1     1     2 1   
     2     1    17 1   
     3     1    36 1   
     4     2     3 1   
     5     2    13 1   
     6     2    18 1   
     7     3     4 1   
     8     3     5 1   
     9     3    19 1   
    10     4    20 1   
    11     5     6 1   
    12     5     9 1   
    13     5    21 1   
    14     6     7 1   
    15     6    11 1   
    16     6    22 1   
    17     7     8 1   
    18     7    23 1   
    19     7    24 1   
    20     8     9 1   
    21     8    10 2   
    22     9    25 1   
    23     9    26 1   
    24    11    12 1   
    25    11    37 1   
    26    13    14 1   
    27    13    27 1   
    28    13    28 1   
    29    14    15 1   
    30    14    16 1   
    31    14    29 1   
    32    15    30 1   
    33    15    31 1   
    34    15    32 1   
    35    16    33 1   
    36    16    34 1   
    37    16    35 1   
@<TRIPOS>SUBSTRUCTURE
     1 24O         1 TEMP              0 ****  ****    0 ROOT
