@<TRIPOS>MOLECULE
24P
   41    43     1     0     0
SMALL
No Charge or Current Charge


@<TRIPOS>ATOM
      1 CAB         -4.5550    -0.6250     1.1830 ca         1 24P      -0.104500
      2 CAA         -5.3240    -1.7570     0.8590 ca         1 24P      -0.109500
      3 CAF         -5.7900    -1.9390    -0.4540 ca         1 24P      -0.112000
      4 CAE         -5.4860    -0.9890    -1.4430 ca         1 24P      -0.109500
      5 CAD         -4.7170     0.1430    -1.1200 ca         1 24P      -0.104500
      6 CAC         -4.2490     0.3320     0.1950 ca         1 24P      -0.075300
      7 CAG         -3.4110     1.5560     0.5440 c3         1 24P       0.021200
      8 CAH         -1.9250     1.2920     0.3380 ca         1 24P      -0.115300
      9 CAM         -1.3200     1.5660    -0.9030 ca         1 24P      -0.067500
     10 CAL          0.0500     1.3160    -1.0930 ca         1 24P      -0.171000
     11 CAI         -1.1460     0.7620     1.3850 ca         1 24P      -0.067500
     12 CAJ          0.2250     0.5120     1.1960 ca         1 24P      -0.171000
     13 CAK          0.8290     0.7900    -0.0500 ca         1 24P       0.143100
     14 OAN          2.1680     0.5660    -0.2950 os         1 24P      -0.332100
     15 CAO          3.0520     0.0290     0.7090 c3         1 24P       0.164600
     16 CAP          4.4830    -0.0850     0.1100 c5         1 24P       0.143500
     17 CAQ          5.5360    -0.6140     1.1100 c5         1 24P      -0.110400
     18 CAR          6.7430    -0.8850     0.1700 c5         1 24P      -0.115400
     19 CAS          6.0780    -1.1820    -1.2080 c5         1 24P       0.131800
     20 NAT          4.6160    -1.0890    -0.9760 n7         1 24P      -0.811400
     21 HAB         -4.1960    -0.4930     2.2010 ha         1 24P       0.109500
     22 HAA         -5.5580    -2.4920     1.6260 ha         1 24P       0.110500
     23 HAF         -6.3850    -2.8150    -0.7040 ha         1 24P       0.111000
     24 HAE         -5.8450    -1.1300    -2.4610 ha         1 24P       0.110500
     25 HAD         -4.4840     0.8720    -1.8930 ha         1 24P       0.109500
     26 HAG         -3.7280     2.4120    -0.0640 hc         1 24P       0.051700
     27 HAGA        -3.5990     1.8550     1.5830 hc         1 24P       0.051700
     28 HAM         -1.9120     1.9700    -1.7220 ha         1 24P       0.109500
     29 HAL          0.5100     1.5290    -2.0540 ha         1 24P       0.121000
     30 HAI         -1.6040     0.5420     2.3470 ha         1 24P       0.109500
     31 HAJ          0.7970     0.1040     2.0230 ha         1 24P       0.121000
     32 HAO          3.0860     0.6930     1.5830 h1         1 24P       0.034200
     33 HAOA         2.7130    -0.9620     1.0380 h1         1 24P       0.034200
     34 HAP          4.7720     0.9140    -0.2520 h1         1 24P       0.080700
     35 HAQ          5.7720     0.1130     1.8960 hc         1 24P       0.047700
     36 HAQA         5.1980    -1.5330     1.6040 hc         1 24P       0.047700
     37 HAR          7.4000    -0.0110     0.1010 hc         1 24P       0.048200
     38 HARA         7.3560    -1.7220     0.5230 hc         1 24P       0.048200
     39 HAS          6.3950    -0.4320    -1.9470 h1         1 24P       0.056700
     40 HASA         6.3590    -2.1700    -1.6010 h1         1 24P       0.056700
     41 HNAT         4.2890    -1.9900    -0.6090 hn         1 24P       0.400000
@<TRIPOS>BOND
     1     1     2 ar  
     2     1     6 ar  
     3     1    21 1   
     4     2     3 ar  
     5     2    22 1   
     6     3     4 ar  
     7     3    23 1   
     8     4     5 ar  
     9     4    24 1   
    10     5     6 ar  
    11     5    25 1   
    12     6     7 1   
    13     7     8 1   
    14     7    26 1   
    15     7    27 1   
    16     8     9 ar  
    17     8    11 ar  
    18     9    10 ar  
    19     9    28 1   
    20    10    13 ar  
    21    10    29 1   
    22    11    12 ar  
    23    11    30 1   
    24    12    13 ar  
    25    12    31 1   
    26    13    14 1   
    27    14    15 1   
    28    15    16 1   
    29    15    32 1   
    30    15    33 1   
    31    16    17 1   
    32    16    20 1   
    33    16    34 1   
    34    17    18 1   
    35    17    35 1   
    36    17    36 1   
    37    18    19 1   
    38    18    37 1   
    39    18    38 1   
    40    19    20 1   
    41    19    39 1   
    42    19    40 1   
    43    20    41 1   
@<TRIPOS>SUBSTRUCTURE
     1 24P         1 TEMP              0 ****  ****    0 ROOT
