@<TRIPOS>MOLECULE
24P
   41    43     1     0     0
SMALL
abcg2


@<TRIPOS>ATOM
      1 CAB         -4.4400    -0.6170     1.2330 ca         1 24P      -0.104500
      2 CAA         -5.0690    -1.8300     0.9790 ca         1 24P      -0.109500
      3 CAF         -5.3850    -2.1910    -0.3230 ca         1 24P      -0.112000
      4 CAE         -5.0690    -1.3310    -1.3680 ca         1 24P      -0.109500
      5 CAD         -4.4390    -0.1220    -1.1100 ca         1 24P      -0.104500
      6 CAC         -4.1140     0.2490     0.1940 ca         1 24P      -0.075300
      7 CAG         -3.3850     1.5420     0.4660 c3         1 24P       0.021200
      8 CAH         -1.8940     1.3880     0.2910 ca         1 24P      -0.115300
      9 CAM         -1.2500     1.8160    -0.8680 ca         1 24P      -0.067500
     10 CAL          0.1120     1.6400    -1.0440 ca         1 24P      -0.171000
     11 CAI         -1.1200     0.7810     1.2720 ca         1 24P      -0.067500
     12 CAJ          0.2480     0.5940     1.1160 ca         1 24P      -0.171000
     13 CAK          0.8750     1.0240    -0.0520 ca         1 24P       0.143100
     14 OAN          2.1930     0.8900    -0.3040 os         1 24P      -0.332100
     15 CAO          2.9990     0.2050     0.6370 c3         1 24P       0.164600
     16 CAP          4.4100     0.1210     0.1070 c5         1 24P       0.143500
     17 CAQ          5.3610    -0.5720     1.1170 c5         1 24P      -0.110400
     18 CAR          6.2340    -1.4970     0.2510 c5         1 24P      -0.115400
     19 CAS          5.8820    -1.0860    -1.1850 c5         1 24P       0.131800
     20 NAT          4.5030    -0.6190    -1.1480 n7         1 24P      -0.811400
     21 HAB         -4.2020    -0.3410     2.2540 ha         1 24P       0.109500
     22 HAA         -5.3170    -2.4890     1.8020 ha         1 24P       0.110500
     23 HAF         -5.8790    -3.1330    -0.5250 ha         1 24P       0.111000
     24 HAE         -5.3150    -1.6030    -2.3870 ha         1 24P       0.110500
     25 HAD         -4.1990     0.5440    -1.9320 ha         1 24P       0.109500
     26 HAG         -3.7530     2.3220    -0.2040 hc         1 24P       0.051700
     27 HAGA        -3.6030     1.8750     1.4830 hc         1 24P       0.051700
     28 HAM         -1.8210     2.2970    -1.6540 ha         1 24P       0.109500
     29 HAL          0.5930     1.9820    -1.9520 ha         1 24P       0.121000
     30 HAI         -1.5860     0.4380     2.1880 ha         1 24P       0.109500
     31 HAJ          0.8010     0.1160     1.9130 ha         1 24P       0.121000
     32 HAO          3.0020     0.7290     1.5990 h1         1 24P       0.034200
     33 HAOA         2.6090    -0.8070     0.8130 h1         1 24P       0.034200
     34 HAP          4.7760     1.1380    -0.0750 h1         1 24P       0.080700
     35 HAQ          5.9520     0.1650     1.6620 hc         1 24P       0.047700
     36 HAQA         4.8020    -1.1420     1.8630 hc         1 24P       0.047700
     37 HAR          7.2980    -1.4000     0.4670 hc         1 24P       0.048200
     38 HARA         5.9640    -2.5420     0.4150 hc         1 24P       0.048200
     39 HAS          6.5260    -0.2620    -1.5100 h1         1 24P       0.056700
     40 HASA         5.9970    -1.8920    -1.9100 h1         1 24P       0.056700
     41 HNAT         3.8940    -1.4310    -1.0950 hn         1 24P       0.400000
@<TRIPOS>BOND
     1     1     2 ar  
     2     1     6 ar  
     3     1    21 1   
     4     2     3 ar  
     5     2    22 1   
     6     3     4 ar  
     7     3    23 1   
     8     4     5 ar  
     9     4    24 1   
    10     5     6 ar  
    11     5    25 1   
    12     6     7 1   
    13     7     8 1   
    14     7    26 1   
    15     7    27 1   
    16     8     9 ar  
    17     8    11 ar  
    18     9    10 ar  
    19     9    28 1   
    20    10    13 ar  
    21    10    29 1   
    22    11    12 ar  
    23    11    30 1   
    24    12    13 ar  
    25    12    31 1   
    26    13    14 1   
    27    14    15 1   
    28    15    16 1   
    29    15    32 1   
    30    15    33 1   
    31    16    17 1   
    32    16    20 1   
    33    16    34 1   
    34    17    18 1   
    35    17    35 1   
    36    17    36 1   
    37    18    19 1   
    38    18    37 1   
    39    18    38 1   
    40    19    20 1   
    41    19    39 1   
    42    19    40 1   
    43    20    41 1   
@<TRIPOS>SUBSTRUCTURE
     1 24P         1 TEMP              0 ****  ****    0 ROOT
