@<TRIPOS>MOLECULE
24Q
   67    70     1     0     0
SMALL
No Charge or Current Charge


@<TRIPOS>ATOM
      1 C10         -3.7910    -1.7970     1.6110 ca         1 24Q      -0.076000
      2 C17          1.5200    -0.1590     0.5270 ca         1 24Q       0.026000
      3 C20          3.4440     1.2820     0.0620 ca         1 24Q      -0.046000
      4 C21          4.3360     0.2530     0.4420 ca         1 24Q      -0.192600
      5 C22          3.7950    -0.9780     0.8730 ca         1 24Q      -0.028000
      6 C24          0.9630    -3.2480     0.3980 ca         1 24Q      -0.101300
      7 C26          1.2860    -3.2660    -0.9740 ca         1 24Q      -0.110000
      8 C28         -1.0960    -4.4670    -0.0930 ca         1 24Q      -0.105500
      9 C01         -9.0670     2.1420    -0.5770 c6         1 24Q      -0.072400
     10 C02         -8.0130     1.2680    -1.3020 c6         1 24Q      -0.072400
     11 C03         -6.8250     0.9110    -0.3660 c6         1 24Q      -0.055700
     12 C04         -6.1890     2.2050     0.2200 c6         1 24Q      -0.072400
     13 C05         -7.2440     3.0800     0.9420 c6         1 24Q      -0.072400
     14 C06         -8.4260     3.4250     0.0040 c6         1 24Q      -0.075400
     15 C07         -5.7750     0.0260    -1.1050 c3         1 24Q      -0.127700
     16 C08         -4.6330    -0.4630    -0.2220 ca         1 24Q       0.362300
     17 C09         -4.8660    -1.3810     0.8150 ca         1 24Q      -0.143000
     18 C11         -2.5160    -1.2790     1.3350 ca         1 24Q      -0.145000
     19 C12         -2.3390    -0.3620     0.2660 ca         1 24Q       0.294500
     20 N13         -3.4050     0.0340    -0.4930 nb         1 24Q      -0.630000
     21 C14         -0.9520     0.2080    -0.0760 c          1 24Q       0.518600
     22 O15         -0.7960     1.1180    -0.8910 o          1 24Q      -0.537100
     23 N16          0.1180    -0.3930     0.5790 ns         1 24Q      -0.157000
     24 C18          2.4020    -1.1930     0.9230 ca         1 24Q      -0.141300
     25 C19          2.0560     1.0750     0.1080 ca         1 24Q      -0.144000
     26 C23          1.8820    -2.5560     1.4040 c3         1 24Q       0.012200
     27 C25          0.4200    -3.8740    -1.9000 ca         1 24Q      -0.105500
     28 C27         -0.2290    -3.8620     0.8330 ca         1 24Q      -0.110000
     29 C29         -0.7730    -4.4720    -1.4600 ca         1 24Q      -0.105000
     30 C30          5.8410     0.4280     0.4080 c          1 24Q       0.654700
     31 O31          6.5990    -0.4750     0.7260 o          1 24Q      -0.563100
     32 N32          6.3000     1.6350    -0.0170 ns         1 24Q      -0.587300
     33 S33          7.8770     2.1750    -0.0620 s6         1 24Q       1.221800
     34 O34          7.8290     3.6050    -0.3810 o          1 24Q      -0.523500
     35 O35          8.5700     1.7120     1.1450 o          1 24Q      -0.523500
     36 C36          8.5620     1.3150    -1.4670 c3         1 24Q      -0.362100
     37 H101        -3.9430    -2.5020     2.4270 ha         1 24Q       0.123000
     38 H201         3.8030     2.2520    -0.2690 ha         1 24Q       0.119000
     39 H221         4.4650    -1.7810     1.1750 ha         1 24Q       0.134000
     40 H261         2.2040    -2.8010    -1.3270 ha         1 24Q       0.114500
     41 H281        -2.0170    -4.9330     0.2500 ha         1 24Q       0.116000
     42 H011        -9.8720     2.4110    -1.2750 hc         1 24Q       0.038200
     43 H012        -9.5360     1.5630     0.2310 hc         1 24Q       0.038200
     44 H021        -8.4910     0.3490    -1.6690 hc         1 24Q       0.044450
     45 H022        -7.6430     1.8010    -2.1890 hc         1 24Q       0.044450
     46 H031        -7.2150     0.3080     0.4670 hc         1 24Q       0.043700
     47 H041        -5.3890     1.9510     0.9270 hc         1 24Q       0.044450
     48 H042        -5.7180     2.7870    -0.5850 hc         1 24Q       0.044450
     49 H051        -7.6180     2.5510     1.8300 hc         1 24Q       0.038200
     50 H052        -6.7750     4.0050     1.3050 hc         1 24Q       0.038200
     51 H061        -8.0740     4.0670    -0.8150 hc         1 24Q       0.038700
     52 H062        -9.1820     4.0040     0.5530 hc         1 24Q       0.038700
     53 H071        -6.2770    -0.8510    -1.5310 hc         1 24Q       0.058700
     54 H072        -5.3750     0.5760    -1.9650 hc         1 24Q       0.058700
     55 H091        -5.8670    -1.7600     0.9980 ha         1 24Q       0.128000
     56 H111        -1.6840    -1.5880     1.9610 ha         1 24Q       0.125000
     57 H161        -0.1360    -1.1760     1.1660 hn         1 24Q       0.169000
     58 H191         1.4060     1.8980    -0.1750 ha         1 24Q       0.154000
     59 H231         1.3620    -2.4180     2.3600 hc         1 24Q       0.060700
     60 H232         2.7190    -3.2270     1.6290 hc         1 24Q       0.060700
     61 H251         0.6720    -3.8790    -2.9580 ha         1 24Q       0.116000
     62 H271        -0.4890    -3.8670     1.8900 ha         1 24Q       0.114500
     63 H291        -1.4440    -4.9400    -2.1760 ha         1 24Q       0.117000
     64 H1           5.6530     2.3560    -0.2750 hn         1 24Q       0.349500
     65 H361         7.9660     1.5880    -2.3440 h1         1 24Q       0.109700
     66 H362         9.6010     1.6410    -1.5740 h1         1 24Q       0.109700
     67 H363         8.5000     0.2420    -1.2590 h1         1 24Q       0.109700
@<TRIPOS>BOND
     1     1    17 ar  
     2     1    18 ar  
     3     1    37 1   
     4     2    23 1   
     5     2    24 ar  
     6     2    25 ar  
     7     3     4 ar  
     8     3    25 ar  
     9     3    38 1   
    10     4     5 ar  
    11     4    30 1   
    12     5    24 ar  
    13     5    39 1   
    14     6     7 ar  
    15     6    26 1   
    16     6    28 ar  
    17     7    27 ar  
    18     7    40 1   
    19     8    28 ar  
    20     8    29 ar  
    21     8    41 1   
    22     9    10 1   
    23     9    14 1   
    24     9    42 1   
    25     9    43 1   
    26    10    11 1   
    27    10    44 1   
    28    10    45 1   
    29    11    12 1   
    30    11    15 1   
    31    11    46 1   
    32    12    13 1   
    33    12    47 1   
    34    12    48 1   
    35    13    14 1   
    36    13    49 1   
    37    13    50 1   
    38    14    51 1   
    39    14    52 1   
    40    15    16 1   
    41    15    53 1   
    42    15    54 1   
    43    16    17 ar  
    44    16    20 ar  
    45    17    55 1   
    46    18    19 ar  
    47    18    56 1   
    48    19    20 ar  
    49    19    21 1   
    50    21    22 2   
    51    21    23 1   
    52    23    57 1   
    53    24    26 1   
    54    25    58 1   
    55    26    59 1   
    56    26    60 1   
    57    27    29 ar  
    58    27    61 1   
    59    28    62 1   
    60    29    63 1   
    61    30    31 2   
    62    30    32 1   
    63    32    33 1   
    64    32    64 1   
    65    33    34 2   
    66    33    35 2   
    67    33    36 1   
    68    36    65 1   
    69    36    66 1   
    70    36    67 1   
@<TRIPOS>SUBSTRUCTURE
     1 24Q         1 TEMP              0 ****  ****    0 ROOT
