@<TRIPOS>MOLECULE
24R
   53    57     1     0     0
SMALL
No Charge or Current Charge


@<TRIPOS>ATOM
      1 C           61.9870    46.8920    -0.1110 cc         1 24R      -0.048000
      2 C1          62.1200    46.8950    -1.5030 cd         1 24R      -0.080000
      3 C2          62.9200    47.8880    -2.2070 cd         1 24R       0.379900
      4 N           63.5880    48.8680    -1.6030 nc         1 24R      -0.645000
      5 C3          63.4240    48.8210    -0.2450 cc         1 24R       0.373500
      6 N4          62.6890    47.9220     0.5090 na         1 24R       0.115900
      7 N5          62.6890    48.0940     1.8720 nc         1 24R      -0.574100
      8 C6          63.9470    49.6490     0.7140 cd         1 24R      -0.191800
      9 C7          63.4720    49.1660     1.9710 cd         1 24R       0.401500
     10 C8          64.8130    50.7930     0.5160 cd         1 24R      -0.026800
     11 C9          65.2430    51.5090     1.6070 cc         1 24R      -0.264000
     12 S           66.2820    52.8450     1.1220 ss         1 24R       0.319000
     13 C10         66.1090    52.4040    -0.5690 cc         1 24R      -0.299600
     14 C11         65.3020    51.2970    -0.7250 cd         1 24R      -0.085000
     15 C12         66.7820    53.1680    -1.6350 c          1 24R       0.641700
     16 N13         66.5400    52.6960    -2.9010 ns         1 24R      -0.496900
     17 O           67.4950    54.1380    -1.4260 o          1 24R      -0.613100
     18 C14         61.4280    45.8630    -2.2460 cd         1 24R      -0.162000
     19 C15         60.6530    44.8850    -1.6880 cc         1 24R      -0.145000
     20 N16         60.2200    44.1580    -2.7960 na         1 24R       0.127800
     21 N17         60.6910    44.6400    -4.0050 nc         1 24R      -0.514800
     22 C18         61.4240    45.6770    -3.6460 cd         1 24R       0.260900
     23 C19         59.3460    42.9770    -2.7690 c3         1 24R       0.074900
     24 C20         67.1370    53.2210    -4.1450 c6         1 24R       0.118700
     25 C21         66.2210    52.9480    -5.3870 c6         1 24R       0.142500
     26 N22         64.8720    53.5410    -5.2260 n8         1 24R      -0.983200
     27 C23         68.5300    52.5760    -4.3860 c6         1 24R      -0.092400
     28 C24         68.4250    51.0570    -4.6880 c6         1 24R      -0.077400
     29 C25         67.4920    50.7880    -5.8940 c6         1 24R      -0.071400
     30 C26         66.0960    51.4300    -5.6860 c6         1 24R      -0.113400
     31 H           61.4230    46.2100     0.5090 h4         1 24R       0.160000
     32 H2          63.0260    47.8930    -3.2840 h4         1 24R       0.031100
     33 H7          63.6760    49.5660     2.9560 h4         1 24R       0.050800
     34 H9          65.0410    51.3660     2.6600 h4         1 24R       0.148000
     35 H11         65.0680    50.8600    -1.6870 ha         1 24R       0.146000
     36 HN13        65.9530    51.8790    -2.9670 hn         1 24R       0.312500
     37 H15         60.3760    44.6410    -0.6710 h4         1 24R       0.156000
     38 H18         61.9260    46.2590    -4.4090 h4         1 24R       0.041100
     39 H19         58.4370    43.1810    -3.3490 h1         1 24R       0.060700
     40 H19A        59.8730    42.1210    -3.2070 h1         1 24R       0.060700
     41 H19B        59.0690    42.7420    -1.7350 h1         1 24R       0.060700
     42 H20         67.2640    54.3090    -4.0380 h1         1 24R       0.100700
     43 H21         66.6800    53.4280    -6.2670 h1         1 24R       0.065700
     44 HN22        64.2470    53.1360    -5.9310 hn         1 24R       0.394500
     45 HN2A        64.4760    53.2200    -4.3360 hn         1 24R       0.394500
     46 H23         69.0240    53.0820    -5.2270 hc         1 24R       0.053200
     47 H23A        69.1750    52.7390    -3.5120 hc         1 24R       0.053200
     48 H24         69.4250    50.6500    -4.8960 hc         1 24R       0.040700
     49 H24A        68.0540    50.5220    -3.8030 hc         1 24R       0.040700
     50 H25         67.9490    51.1890    -6.8090 hc         1 24R       0.041200
     51 H25A        67.3850    49.7050    -6.0480 hc         1 24R       0.041200
     52 H26         65.5740    50.9170    -4.8670 hc         1 24R       0.037200
     53 H26A        65.4890    51.2720    -6.5880 hc         1 24R       0.037200
@<TRIPOS>BOND
     1     1     2 2   
     2     1     6 1   
     3     1    31 1   
     4     2     3 1   
     5     2    18 1   
     6     3     4 2   
     7     3    32 1   
     8     4     5 1   
     9     5     6 1   
    10     5     8 2   
    11     6     7 1   
    12     7     9 2   
    13     8     9 1   
    14     8    10 1   
    15     9    33 1   
    16    10    11 2   
    17    10    14 1   
    18    11    12 1   
    19    11    34 1   
    20    12    13 1   
    21    13    14 2   
    22    13    15 1   
    23    14    35 1   
    24    15    16 1   
    25    15    17 2   
    26    16    24 1   
    27    16    36 1   
    28    18    19 2   
    29    18    22 1   
    30    19    20 1   
    31    19    37 1   
    32    20    21 1   
    33    20    23 1   
    34    21    22 2   
    35    22    38 1   
    36    23    39 1   
    37    23    40 1   
    38    23    41 1   
    39    24    25 1   
    40    24    27 1   
    41    24    42 1   
    42    25    26 1   
    43    25    30 1   
    44    25    43 1   
    45    26    44 1   
    46    26    45 1   
    47    27    28 1   
    48    27    46 1   
    49    27    47 1   
    50    28    29 1   
    51    28    48 1   
    52    28    49 1   
    53    29    30 1   
    54    29    50 1   
    55    29    51 1   
    56    30    52 1   
    57    30    53 1   
@<TRIPOS>SUBSTRUCTURE
     1 24R         1 TEMP              0 ****  ****    0 ROOT
