@<TRIPOS>MOLECULE
24R
   53    57     1     0     0
SMALL
abcg2


@<TRIPOS>ATOM
      1 C           61.8210    46.9890    -0.0760 cc         1 24R      -0.048000
      2 C1          62.0130    46.8090    -1.4220 cd         1 24R      -0.080000
      3 C2          62.8740    47.7380    -2.0810 cd         1 24R       0.379900
      4 N           63.4800    48.7380    -1.4850 nc         1 24R      -0.645000
      5 C3          63.2820    48.8930    -0.1650 cc         1 24R       0.373500
      6 N4          62.4570    48.0130     0.5380 na         1 24R       0.115900
      7 N5          62.3760    48.3190     1.8490 nc         1 24R      -0.574100
      8 C6          63.7500    49.8160     0.7820 cd         1 24R      -0.191800
      9 C7          63.1540    49.3980     1.9850 cd         1 24R       0.401500
     10 C8          64.6450    50.9430     0.5680 cd         1 24R      -0.026800
     11 C9          65.0520    51.8170     1.5540 cc         1 24R      -0.264000
     12 S           66.1070    53.0290     0.9710 ss         1 24R       0.319000
     13 C10         66.0340    52.3900    -0.6340 cc         1 24R      -0.299600
     14 C11         65.2190    51.2890    -0.6920 cd         1 24R      -0.085000
     15 C12         66.8160    53.0720    -1.6880 c          1 24R       0.641700
     16 N13         66.7790    52.5070    -2.9110 ns         1 24R      -0.496900
     17 O           67.4540    54.0980    -1.4270 o          1 24R      -0.613100
     18 C14         61.3740    45.7230    -2.1580 cd         1 24R      -0.162000
     19 C15         60.8130    44.5570    -1.6510 cc         1 24R      -0.145000
     20 N16         60.3370    43.8560    -2.6980 na         1 24R       0.127800
     21 N17         60.5480    44.4850    -3.8700 nc         1 24R      -0.514800
     22 C18         61.1750    45.6140    -3.5540 cd         1 24R       0.260900
     23 C19         59.6770    42.5640    -2.6700 c3         1 24R       0.074900
     24 C20         67.4910    53.0300    -4.0740 c6         1 24R       0.118700
     25 C21         66.5250    53.2290    -5.2540 c6         1 24R       0.142500
     26 N22         65.4440    54.1390    -4.8620 n8         1 24R      -0.983200
     27 C23         68.6590    52.1170    -4.4720 c6         1 24R      -0.092400
     28 C24         68.1860    50.7770    -5.0390 c6         1 24R      -0.077400
     29 C25         67.2260    50.9840    -6.2130 c6         1 24R      -0.071400
     30 C26         66.0510    51.8830    -5.8200 c6         1 24R      -0.113400
     31 H           61.1900    46.3750     0.5500 h4         1 24R       0.160000
     32 H2          63.0590    47.6260    -3.1430 h4         1 24R       0.031100
     33 H7          63.2600    49.8470     2.9600 h4         1 24R       0.050800
     34 H9          64.7800    51.8030     2.5980 h4         1 24R       0.148000
     35 H11         65.0150    50.7260    -1.5910 ha         1 24R       0.146000
     36 HN13        66.2710    51.6450    -3.0160 hn         1 24R       0.312500
     37 H15         60.7350    44.1830    -0.6440 h4         1 24R       0.156000
     38 H18         61.4510    46.3120    -4.3290 h4         1 24R       0.041100
     39 H19         58.6860    42.6460    -3.1150 h1         1 24R       0.060700
     40 H19A        60.2650    41.8340    -3.2250 h1         1 24R       0.060700
     41 H19B        59.5850    42.2460    -1.6340 h1         1 24R       0.060700
     42 H20         67.8730    54.0030    -3.7740 h1         1 24R       0.100700
     43 H21         67.1050    53.7330    -6.0330 h1         1 24R       0.065700
     44 HN22        64.8250    54.2850    -5.6540 hn         1 24R       0.394500
     45 HN2A        64.8780    53.6990    -4.1420 hn         1 24R       0.394500
     46 H23         69.2480    52.6420    -5.2300 hc         1 24R       0.053200
     47 H23A        69.3050    51.9680    -3.6040 hc         1 24R       0.053200
     48 H24         69.0490    50.1880    -5.3550 hc         1 24R       0.040700
     49 H24A        67.6870    50.1960    -4.2560 hc         1 24R       0.040700
     50 H25         67.7700    51.4490    -7.0430 hc         1 24R       0.041200
     51 H25A        66.8570    50.0220    -6.5750 hc         1 24R       0.041200
     52 H26         65.4260    51.3760    -5.0760 hc         1 24R       0.037200
     53 H26A        65.4080    52.0720    -6.6840 hc         1 24R       0.037200
@<TRIPOS>BOND
     1     1     2 2   
     2     1     6 1   
     3     1    31 1   
     4     2     3 1   
     5     2    18 1   
     6     3     4 2   
     7     3    32 1   
     8     4     5 1   
     9     5     6 1   
    10     5     8 2   
    11     6     7 1   
    12     7     9 2   
    13     8     9 1   
    14     8    10 1   
    15     9    33 1   
    16    10    11 2   
    17    10    14 1   
    18    11    12 1   
    19    11    34 1   
    20    12    13 1   
    21    13    14 2   
    22    13    15 1   
    23    14    35 1   
    24    15    16 1   
    25    15    17 2   
    26    16    24 1   
    27    16    36 1   
    28    18    19 2   
    29    18    22 1   
    30    19    20 1   
    31    19    37 1   
    32    20    21 1   
    33    20    23 1   
    34    21    22 2   
    35    22    38 1   
    36    23    39 1   
    37    23    40 1   
    38    23    41 1   
    39    24    25 1   
    40    24    27 1   
    41    24    42 1   
    42    25    26 1   
    43    25    30 1   
    44    25    43 1   
    45    26    44 1   
    46    26    45 1   
    47    27    28 1   
    48    27    46 1   
    49    27    47 1   
    50    28    29 1   
    51    28    48 1   
    52    28    49 1   
    53    29    30 1   
    54    29    50 1   
    55    29    51 1   
    56    30    52 1   
    57    30    53 1   
@<TRIPOS>SUBSTRUCTURE
     1 24R         1 TEMP              0 ****  ****    0 ROOT
