@<TRIPOS>MOLECULE
24S
   44    45     1     0     0
SMALL
No Charge or Current Charge


@<TRIPOS>ATOM
      1 C1           1.8370     0.2340     0.2150 c6         1 24S       0.299700
      2 C2           1.9760    -1.3110    -0.0150 c6         1 24S       0.101300
      3 O2           0.9390    -2.0680     0.6520 oh         1 24S      -0.714000
      4 C3           3.3650    -1.7740     0.5110 c6         1 24S       0.139300
      5 O3           3.5390    -3.1830     0.2790 oh         1 24S      -0.666000
      6 C4           4.5070    -0.9590    -0.1610 c6         1 24S       0.143300
      7 O4           5.7790    -1.3830     0.3670 oh         1 24S      -0.714000
      8 C5           4.2480     0.5630     0.0640 c6         1 24S       0.179300
      9 O5           2.9300     0.9120    -0.4390 os         1 24S      -0.457000
     10 C6           5.3090     1.4590    -0.6590 c3         1 24S       0.172600
     11 O6           5.0670     2.8730    -0.5080 oh         1 24S      -0.704000
     12 NAL          0.6220     0.7660    -0.3900 ns         1 24S      -0.427900
     13 CAM         -0.0140     1.9240    -0.0490 cs         1 24S       0.491400
     14 NAN         -1.0430     2.2680    -0.8990 ns         1 24S      -0.236900
     15 SAO          0.3760     2.8420     1.2930 s          1 24S      -0.612400
     16 NAP         -1.4380     1.5440    -2.0220 n2         1 24S      -0.461300
     17 CAQ         -2.3230     0.5930    -1.9170 ce         1 24S       0.420800
     18 CAR         -3.3760     0.5690    -0.8460 ca         1 24S      -0.125900
     19 CAS         -3.6360    -0.6070    -0.0840 ca         1 24S      -0.154200
     20 CAT         -4.6580    -0.5900     0.8940 ca         1 24S      -0.048000
     21 CAU         -5.3990     0.5790     1.1330 ca         1 24S      -0.105000
     22 CAV         -5.1290     1.7430     0.4000 ca         1 24S      -0.063000
     23 CAW         -4.1250     1.7380    -0.5810 ca         1 24S      -0.111000
     24 NAX         -2.8400    -1.8640    -0.2700 no         1 24S       0.692200
     25 OAY         -1.6210    -1.7560    -0.4690 o          1 24S      -0.390000
     26 OAZ         -3.4080    -2.9440    -0.0710 o          1 24S      -0.390000
     27 H1           1.8410     0.4530     1.2950 h2         1 24S       0.106700
     28 H2           1.9380    -1.5000    -1.0990 h1         1 24S       0.052700
     29 HO2          0.0780    -1.8730     0.1990 ho         1 24S       0.519000
     30 H3           3.3960    -1.5740     1.5940 h1         1 24S       0.061700
     31 HO3          2.6540    -3.5750     0.4660 ho         1 24S       0.467000
     32 H4           4.4750    -1.1520    -1.2440 h1         1 24S       0.051700
     33 HO4          5.7030    -2.3660     0.4470 ho         1 24S       0.525000
     34 H5           4.2900     0.7870     1.1410 h1         1 24S       0.073700
     35 H6           6.3000     1.2070    -0.2590 h1         1 24S       0.035200
     36 H6A          5.3110     1.1900    -1.7240 h1         1 24S       0.035200
     37 HO6          5.7420     3.3400    -1.0530 ho         1 24S       0.503000
     38 HNAL         0.3020     0.3420    -1.2500 hn         1 24S       0.334500
     39 HNAN        -1.5230     3.1310    -0.6500 hn         1 24S       0.355500
     40 HAQ         -2.3090    -0.2550    -2.6050 h4         1 24S       0.058800
     41 HAT         -4.8720    -1.4790     1.4870 ha         1 24S       0.156000
     42 HAU         -6.1780     0.5830     1.8920 ha         1 24S       0.135000
     43 HAV         -5.7030     2.6490     0.5870 ha         1 24S       0.134000
     44 HAW         -3.9420     2.6450    -1.1550 ha         1 24S       0.138000
@<TRIPOS>BOND
     1     1     2 1   
     2     1     9 1   
     3     1    12 1   
     4     1    27 1   
     5     2     3 1   
     6     2     4 1   
     7     2    28 1   
     8     3    29 1   
     9     4     5 1   
    10     4     6 1   
    11     4    30 1   
    12     5    31 1   
    13     6     7 1   
    14     6     8 1   
    15     6    32 1   
    16     7    33 1   
    17     8     9 1   
    18     8    10 1   
    19     8    34 1   
    20    10    11 1   
    21    10    35 1   
    22    10    36 1   
    23    11    37 1   
    24    12    13 1   
    25    12    38 1   
    26    13    14 1   
    27    13    15 2   
    28    14    16 1   
    29    14    39 1   
    30    16    17 2   
    31    17    18 1   
    32    17    40 1   
    33    18    19 ar  
    34    18    23 ar  
    35    19    20 ar  
    36    19    24 1   
    37    20    21 ar  
    38    20    41 1   
    39    21    22 ar  
    40    21    42 1   
    41    22    23 ar  
    42    22    43 1   
    43    23    44 1   
    44    24    25 1   
    45    24    26 1   
@<TRIPOS>SUBSTRUCTURE
     1 24S         1 TEMP              0 ****  ****    0 ROOT
