@<TRIPOS>MOLECULE
24T
   13    13     1     0     0
SMALL
No Charge or Current Charge


@<TRIPOS>ATOM
      1 S1           1.3220    -0.1760    -0.7950 ss         1 24T      -0.121400
      2 C2          -0.4060    -0.0700    -0.9510 cc         1 24T       0.697300
      3 N3          -1.1220     0.0020     0.1360 nd         1 24T      -0.730000
      4 C4          -0.2720    -0.0350     1.2310 cd         1 24T       0.336300
      5 C5           1.0690    -0.1290     0.9280 cc         1 24T      -0.279000
      6 N           -1.0480    -0.0380    -2.1210 nv         1 24T      -1.039900
      7 CM          -0.8480     0.0290     2.6160 c3         1 24T      -0.121400
      8 H5           1.9120    -0.1720     1.6040 h4         1 24T       0.159000
      9 HN1         -0.5060     0.2490    -2.9270 hn         1 24T       0.475500
     10 HN2         -2.0040     0.2900    -2.0770 hn         1 24T       0.475500
     11 HM1         -1.4050     0.9610     2.7650 hc         1 24T       0.049033
     12 HM2         -1.5330    -0.8080     2.7950 hc         1 24T       0.049033
     13 HM3         -0.0590    -0.0150     3.3750 hc         1 24T       0.049033
@<TRIPOS>BOND
     1     1     2 1   
     2     1     5 1   
     3     2     3 2   
     4     2     6 1   
     5     3     4 1   
     6     4     5 2   
     7     4     7 1   
     8     5     8 1   
     9     6     9 1   
    10     6    10 1   
    11     7    11 1   
    12     7    12 1   
    13     7    13 1   
@<TRIPOS>SUBSTRUCTURE
     1 24T         1 TEMP              0 ****  ****    0 ROOT
