@<TRIPOS>MOLECULE
24T
   13    13     1     0     0
SMALL
abcg2


@<TRIPOS>ATOM
      1 S1           1.2680    -0.1520    -0.7690 ss         1 24T      -0.121400
      2 C2          -0.4620    -0.0260    -0.9420 cc         1 24T       0.697300
      3 N3          -1.1120     0.0260     0.1790 nd         1 24T      -0.730000
      4 C4          -0.2580    -0.0310     1.2540 cd         1 24T       0.336300
      5 C5           1.0580    -0.1270     0.9510 cc         1 24T      -0.279000
      6 N           -1.0420    -0.0500    -2.1650 nv         1 24T      -1.039900
      7 CM          -0.8230     0.0230     2.6330 c3         1 24T      -0.121400
      8 H5           1.9010    -0.1780     1.6210 h4         1 24T       0.159000
      9 HN1         -0.4950     0.2340    -2.9610 hn         1 24T       0.475500
     10 HN2         -2.0020     0.2570    -2.1990 hn         1 24T       0.475500
     11 HM1         -1.3650     0.9560     2.7960 hc         1 24T       0.049033
     12 HM2         -1.5290    -0.7930     2.7970 hc         1 24T       0.049033
     13 HM3         -0.0390    -0.0500     3.3850 hc         1 24T       0.049033
@<TRIPOS>BOND
     1     1     2 1   
     2     1     5 1   
     3     2     3 2   
     4     2     6 1   
     5     3     4 1   
     6     4     5 2   
     7     4     7 1   
     8     5     8 1   
     9     6     9 1   
    10     6    10 1   
    11     7    11 1   
    12     7    12 1   
    13     7    13 1   
@<TRIPOS>SUBSTRUCTURE
     1 24T         1 TEMP              0 ****  ****    0 ROOT
