@<TRIPOS>MOLECULE
24U
   47    48     1     0     0
SMALL
No Charge or Current Charge


@<TRIPOS>ATOM
      1 C17         -7.8430    -0.0440     1.2160 c3         1 24U      -0.092100
      2 C33         -6.6000    -0.7830     0.6850 c3         1 24U      -0.065400
      3 C15         -5.4290     0.1720     0.3490 c3         1 24U      -0.151400
      4 C14         -4.1490    -0.4970    -0.1920 c          1 24U       0.612100
      5 O32         -4.0530    -1.7150    -0.2860 o          1 24U      -0.605100
      6 N1          -3.0770     0.3310    -0.5850 n          1 24U      -0.404800
      7 C1          -1.7990    -0.2200    -1.1170 c5         1 24U       0.030700
      8 C7          -0.8560    -0.8180    -0.0220 c          1 24U       0.597100
      9 O22         -0.9630    -0.7140     1.1940 o          1 24U      -0.593100
     10 C2          -1.1560     1.0630    -1.7310 c5         1 24U      -0.085400
     11 C3          -1.6100     2.1650    -0.7410 c5         1 24U      -0.094400
     12 C4          -3.1040     1.8100    -0.5280 c5         1 24U       0.112000
     13 N23          0.1500    -1.5380    -0.6330 ns         1 24U      -0.501900
     14 C24          1.2520    -2.1870     0.0770 c3         1 24U       0.143300
     15 C25          2.4740    -1.2820     0.1340 ca         1 24U      -0.094300
     16 C26          3.4660    -1.3610    -0.8590 ca         1 24U      -0.111000
     17 C27          4.5890    -0.5170    -0.8120 ca         1 24U      -0.079000
     18 C28          4.7530     0.4160     0.2380 ca         1 24U      -0.143900
     19 C21          5.9410     1.3330     0.2590 ce         1 24U       0.660800
     20 N47          6.6780     1.5440    -0.7530 n2         1 24U      -0.828100
     21 N46          6.3070     1.8770     1.4400 nv         1 24U      -1.076200
     22 C29          3.7350     0.5050     1.2190 ca         1 24U      -0.079000
     23 C30          2.6130    -0.3400     1.1680 ca         1 24U      -0.111000
     24 H17         -7.6050     0.5060     2.1350 hc         1 24U       0.031700
     25 H17A        -8.2170     0.6700     0.4720 hc         1 24U       0.031700
     26 H17B        -8.6450    -0.7570     1.4410 hc         1 24U       0.031700
     27 H33         -6.8780    -1.3500    -0.2130 hc         1 24U       0.054700
     28 H33A        -6.2710    -1.5130     1.4360 hc         1 24U       0.054700
     29 H15         -5.1460     0.7780     1.2170 hc         1 24U       0.057200
     30 H15A        -5.7340     0.9480    -0.3630 hc         1 24U       0.057200
     31 H1          -1.9750    -0.9870    -1.8830 h1         1 24U       0.078700
     32 H2          -0.0650     1.0020    -1.8250 hc         1 24U       0.057700
     33 H2A         -1.5540     1.2550    -2.7340 hc         1 24U       0.057700
     34 H3          -1.0530     2.1090     0.2020 hc         1 24U       0.061200
     35 H3A         -1.4750     3.1770    -1.1390 hc         1 24U       0.061200
     36 H4          -3.7320     2.2140    -1.3330 h1         1 24U       0.046700
     37 H4A         -3.4740     2.1910     0.4320 h1         1 24U       0.046700
     38 HN23         0.1490    -1.5650    -1.6450 hn         1 24U       0.314500
     39 H24          0.9350    -2.4530     1.0950 h1         1 24U       0.068700
     40 H24A         1.5050    -3.1210    -0.4420 h1         1 24U       0.068700
     41 H26          3.3660    -2.0750    -1.6740 ha         1 24U       0.117000
     42 H27          5.3400    -0.5980    -1.5950 ha         1 24U       0.127000
     43 HN47         7.2830     2.3450    -0.5410 hn         1 24U       0.371400
     44 HN46         5.8890     1.4420     2.2540 hn         1 24U       0.461000
     45 HN4A         7.2870     2.1140     1.5380 hn         1 24U       0.461000
     46 H29          3.7990     1.2370     2.0210 ha         1 24U       0.127000
     47 H30          1.8440    -0.2550     1.9330 ha         1 24U       0.117000
@<TRIPOS>BOND
     1     1     2 1   
     2     1    24 1   
     3     1    25 1   
     4     1    26 1   
     5     2     3 1   
     6     2    27 1   
     7     2    28 1   
     8     3     4 1   
     9     3    29 1   
    10     3    30 1   
    11     4     5 2   
    12     4     6 1   
    13     6     7 1   
    14     6    12 1   
    15     7     8 1   
    16     7    10 1   
    17     7    31 1   
    18     8     9 2   
    19     8    13 1   
    20    10    11 1   
    21    10    32 1   
    22    10    33 1   
    23    11    12 1   
    24    11    34 1   
    25    11    35 1   
    26    12    36 1   
    27    12    37 1   
    28    13    14 1   
    29    13    38 1   
    30    14    15 1   
    31    14    39 1   
    32    14    40 1   
    33    15    16 ar  
    34    15    23 ar  
    35    16    17 ar  
    36    16    41 1   
    37    17    18 ar  
    38    17    42 1   
    39    18    19 1   
    40    18    22 ar  
    41    19    20 2   
    42    19    21 1   
    43    20    43 1   
    44    21    44 1   
    45    21    45 1   
    46    22    23 ar  
    47    22    46 1   
    48    23    47 1   
@<TRIPOS>SUBSTRUCTURE
     1 24U         1 TEMP              0 ****  ****    0 ROOT
