@<TRIPOS>MOLECULE
24U
   47    48     1     0     0
SMALL
abcg2


@<TRIPOS>ATOM
      1 C17         -7.6800    -0.6990     0.9670 c3         1 24U      -0.092100
      2 C33         -6.3540    -1.1500     0.3710 c3         1 24U      -0.065400
      3 C15         -5.3320    -0.0230     0.3650 c3         1 24U      -0.151400
      4 C14         -4.0070    -0.4020    -0.2570 c          1 24U       0.612100
      5 O32         -3.7290    -1.5520    -0.5770 o          1 24U      -0.605100
      6 N1          -3.1370     0.6050    -0.4590 n          1 24U      -0.404800
      7 C1          -1.8450     0.3460    -1.0480 c5         1 24U       0.030700
      8 C7          -0.9580    -0.4460    -0.0920 c          1 24U       0.597100
      9 O22         -1.0960    -0.3880     1.1180 o          1 24U      -0.593100
     10 C2          -1.2800     1.7540    -1.2830 c5         1 24U      -0.085400
     11 C3          -1.9110     2.5840    -0.1700 c5         1 24U      -0.094400
     12 C4          -3.3080     1.9900    -0.0320 c5         1 24U       0.112000
     13 N23          0.0100    -1.1510    -0.7030 ns         1 24U      -0.501900
     14 C24          1.0420    -1.8810    -0.0090 c3         1 24U       0.143300
     15 C25          2.3740    -1.1710     0.0130 ca         1 24U      -0.094300
     16 C26          3.5490    -1.8820    -0.2140 ca         1 24U      -0.111000
     17 C27          4.7830    -1.2550    -0.1640 ca         1 24U      -0.079000
     18 C28          4.8760     0.1050     0.1190 ca         1 24U      -0.143900
     19 C21          6.2150     0.7560     0.1640 ce         1 24U       0.660800
     20 N47          7.1790     0.2190    -0.4800 n2         1 24U      -0.828100
     21 N46          6.2720     1.9240     0.8700 nv         1 24U      -1.076200
     22 C29          3.6990     0.8210     0.3370 ca         1 24U      -0.079000
     23 C30          2.4660     0.1900     0.2840 ca         1 24U      -0.111000
     24 H17         -7.5640    -0.3730     2.0020 hc         1 24U       0.031700
     25 H17A        -8.1010     0.1370     0.4050 hc         1 24U       0.031700
     26 H17B        -8.4120    -1.5060     0.9550 hc         1 24U       0.031700
     27 H33         -6.5150    -1.5060    -0.6490 hc         1 24U       0.054700
     28 H33A        -5.9680    -2.0010     0.9360 hc         1 24U       0.054700
     29 H15         -5.1500     0.3220     1.3890 hc         1 24U       0.057200
     30 H15A        -5.7390     0.8450    -0.1630 hc         1 24U       0.057200
     31 H1          -1.9460    -0.1970    -1.9910 h1         1 24U       0.078700
     32 H2          -0.1910     1.7800    -1.2820 hc         1 24U       0.057700
     33 H2A         -1.6130     2.1110    -2.2600 hc         1 24U       0.057700
     34 H3          -1.3540     2.4670     0.7600 hc         1 24U       0.061200
     35 H3A         -1.9420     3.6470    -0.4040 hc         1 24U       0.061200
     36 H4          -4.0240     2.5060    -0.6780 h1         1 24U       0.046700
     37 H4A         -3.6790     2.0490     0.9920 h1         1 24U       0.046700
     38 HN23         0.0550    -1.1370    -1.7090 hn         1 24U       0.314500
     39 H24          0.7030    -2.0610     1.0120 h1         1 24U       0.068700
     40 H24A         1.1570    -2.8600    -0.4770 h1         1 24U       0.068700
     41 H26          3.4990    -2.9430    -0.4310 ha         1 24U       0.117000
     42 H27          5.6860    -1.8230    -0.3430 ha         1 24U       0.127000
     43 HN47         8.0440     0.7360    -0.3440 hn         1 24U       0.371400
     44 HN46         5.6330     2.0510     1.6370 hn         1 24U       0.461000
     45 HN4A         7.1840     2.3180     1.0380 hn         1 24U       0.461000
     46 H29          3.7300     1.8850     0.5320 ha         1 24U       0.127000
     47 H30          1.5720     0.7750     0.4610 ha         1 24U       0.117000
@<TRIPOS>BOND
     1     1     2 1   
     2     1    24 1   
     3     1    25 1   
     4     1    26 1   
     5     2     3 1   
     6     2    27 1   
     7     2    28 1   
     8     3     4 1   
     9     3    29 1   
    10     3    30 1   
    11     4     5 2   
    12     4     6 1   
    13     6     7 1   
    14     6    12 1   
    15     7     8 1   
    16     7    10 1   
    17     7    31 1   
    18     8     9 2   
    19     8    13 1   
    20    10    11 1   
    21    10    32 1   
    22    10    33 1   
    23    11    12 1   
    24    11    34 1   
    25    11    35 1   
    26    12    36 1   
    27    12    37 1   
    28    13    14 1   
    29    13    38 1   
    30    14    15 1   
    31    14    39 1   
    32    14    40 1   
    33    15    16 ar  
    34    15    23 ar  
    35    16    17 ar  
    36    16    41 1   
    37    17    18 ar  
    38    17    42 1   
    39    18    19 1   
    40    18    22 ar  
    41    19    20 2   
    42    19    21 1   
    43    20    43 1   
    44    21    44 1   
    45    21    45 1   
    46    22    23 ar  
    47    22    46 1   
    48    23    47 1   
@<TRIPOS>SUBSTRUCTURE
     1 24U         1 TEMP              0 ****  ****    0 ROOT
