@<TRIPOS>MOLECULE
24V
   57    62     1     0     0
SMALL
abcg2


@<TRIPOS>ATOM
      1 N1          -6.7750    -2.4090    -0.3900 nb         1 24V      -0.656000
      2 C10         -4.6750     1.4700     0.2940 c5         1 24V       0.096300
      3 C13         -4.2590     3.8180    -0.0830 c5         1 24V      -0.077900
      4 C17          3.5740    -0.6310     0.5750 ca         1 24V       0.307900
      5 C20          2.6470     1.5950    -0.6390 ca         1 24V      -0.169000
      6 C21          6.3100    -1.3590     0.4710 c6         1 24V       0.196800
      7 C22          7.7400    -1.6490     0.0500 c6         1 24V       0.150800
      8 C24          6.7910     1.0070     0.3010 c6         1 24V       0.196800
      9 C02         -6.2570    -1.2070    -0.1740 ca         1 24V       0.327900
     10 C03         -4.8830    -1.0110    -0.1650 ca         1 24V      -0.068200
     11 C04         -4.0200    -2.1010    -0.3900 cp         1 24V      -0.013000
     12 C05         -4.5780    -3.3530    -0.6150 ca         1 24V      -0.117000
     13 C06         -2.6930    -1.5670    -0.3240 cp         1 24V      -0.252000
     14 C07         -1.3940    -2.0210    -0.4590 ca         1 24V       0.205900
     15 N01         -0.3580    -1.2080    -0.3400 nb         1 24V      -0.220000
     16 C08         -0.6110     0.0810    -0.0760 ca         1 24V       0.419900
     17 N02         -1.8120     0.6430     0.0720 nb         1 24V      -0.284000
     18 C09         -2.8260    -0.1880    -0.0600 ca         1 24V       0.226500
     19 N03         -4.1410     0.1420     0.0350 na         1 24V      -0.188300
     20 C11         -4.1740     2.1100     1.6150 c5         1 24V      -0.087900
     21 C12         -3.5400     3.4430     1.2120 c5         1 24V      -0.077900
     22 C14         -4.3580     2.4850    -0.8190 c5         1 24V      -0.087900
     23 N04          0.4310     0.9480     0.0300 nu         1 24V      -0.905800
     24 C16          1.8000     0.6780    -0.0120 ca         1 24V       0.572900
     25 N05          2.2660    -0.3980     0.5870 nb         1 24V      -0.646000
     26 C18          4.5180     0.2080    -0.0240 ca         1 24V       0.225000
     27 C19          4.0030     1.3600    -0.6360 ca         1 24V      -0.098000
     28 N06          5.8790    -0.0770    -0.0540 nh         1 24V      -0.782400
     29 N07          8.6110    -0.5780     0.4920 n7         1 24V      -0.860400
     30 C23          8.2080     0.6720    -0.1210 c6         1 24V       0.150800
     31 C2          -5.9600    -3.4440    -0.6020 ca         1 24V       0.307900
     32 H1          -5.7550     1.3420     0.3570 h1         1 24V       0.058700
     33 H2          -5.2560     4.2110     0.1370 hc         1 24V       0.047200
     34 H3          -3.7310     4.5770    -0.6620 hc         1 24V       0.047200
     35 H5           2.2450     2.4700    -1.1330 ha         1 24V       0.122000
     36 H6           5.6700    -2.1480     0.0710 h1         1 24V       0.045450
     37 H7           6.2370    -1.3970     1.5690 h1         1 24V       0.045450
     38 H8           8.0540    -2.5880     0.5070 h1         1 24V       0.039700
     39 H9           7.7610    -1.7900    -1.0430 h1         1 24V       0.039700
     40 H10          6.4870     1.9270    -0.1930 h1         1 24V       0.045450
     41 H11          6.7660     1.1910     1.3840 h1         1 24V       0.045450
     42 H12         -6.9540    -0.3930    -0.0100 h4         1 24V       0.022100
     43 H13         -3.9700    -4.2290    -0.7960 ha         1 24V       0.127000
     44 H14         -1.1730    -3.0620    -0.6770 h4         1 24V       0.027100
     45 H15         -5.0270     2.2760     2.2750 hc         1 24V       0.057200
     46 H16         -3.4840     1.4610     2.1520 hc         1 24V       0.057200
     47 H17         -2.4770     3.3000     1.0080 hc         1 24V       0.047200
     48 H18         -3.6290     4.2030     1.9890 hc         1 24V       0.047200
     49 H19         -3.3950     2.2510    -1.2740 hc         1 24V       0.057200
     50 H20         -5.1110     2.4720    -1.6070 hc         1 24V       0.057200
     51 H21          0.1620     1.9200     0.0510 hn         1 24V       0.513000
     52 H22          4.6550     2.0600    -1.1400 ha         1 24V       0.121000
     53 H23          9.5690    -0.7890     0.2450 hn         1 24V       0.415000
     54 H25          8.2530     0.6400    -1.2210 h1         1 24V       0.039700
     55 H26          8.8710     1.4730     0.2110 h1         1 24V       0.039700
     56 H27         -6.4380    -4.4010    -0.7740 h4         1 24V       0.020100
     57 H4           3.8810    -1.5340     1.0880 h4         1 24V       0.022100
@<TRIPOS>BOND
     1     1     9 ar  
     2     1    31 ar  
     3     2    19 1   
     4     2    20 1   
     5     2    22 1   
     6     2    32 1   
     7     3    21 1   
     8     3    22 1   
     9     3    33 1   
    10     3    34 1   
    11     4    25 ar  
    12     4    26 ar  
    13     4    57 1   
    14     5    24 ar  
    15     5    27 ar  
    16     5    35 1   
    17     6     7 1   
    18     6    28 1   
    19     6    36 1   
    20     6    37 1   
    21     7    29 1   
    22     7    38 1   
    23     7    39 1   
    24     8    28 1   
    25     8    30 1   
    26     8    40 1   
    27     8    41 1   
    28     9    10 ar  
    29     9    42 1   
    30    10    11 ar  
    31    10    19 1   
    32    11    12 ar  
    33    11    13 1   
    34    12    31 ar  
    35    12    43 1   
    36    13    14 ar  
    37    13    18 ar  
    38    14    15 ar  
    39    14    44 1   
    40    15    16 ar  
    41    16    17 ar  
    42    16    23 1   
    43    17    18 ar  
    44    18    19 1   
    45    20    21 1   
    46    20    45 1   
    47    20    46 1   
    48    21    47 1   
    49    21    48 1   
    50    22    49 1   
    51    22    50 1   
    52    23    24 1   
    53    23    51 1   
    54    24    25 ar  
    55    26    27 ar  
    56    26    28 1   
    57    27    52 1   
    58    29    30 1   
    59    29    53 1   
    60    30    54 1   
    61    30    55 1   
    62    31    56 1   
@<TRIPOS>SUBSTRUCTURE
     1 24V         1 TEMP              0 ****  ****    0 ROOT
