@<TRIPOS>MOLECULE
24V
   57    62     1     0     0
SMALL
No Charge or Current Charge


@<TRIPOS>ATOM
      1 N1          -6.9430    -2.3510     0.0720 nb         1 24V      -0.656000
      2 C10         -4.7170     1.6050     0.0300 c5         1 24V       0.096300
      3 C13         -4.8510     3.8740    -0.7790 c5         1 24V      -0.077900
      4 C17          3.7510    -0.9720    -0.0070 ca         1 24V       0.307900
      5 C20          2.8440     1.6010     0.0770 ca         1 24V      -0.169000
      6 C21          6.6760    -1.4880    -0.4810 c6         1 24V       0.196800
      7 C22          8.1790    -1.3940    -0.9120 c6         1 24V       0.150800
      8 C24          7.0230     0.4810     1.0230 c6         1 24V       0.196800
      9 C02         -6.4010    -1.1030     0.0580 ca         1 24V       0.327900
     10 C03         -5.0060    -0.9260     0.0590 ca         1 24V      -0.068200
     11 C04         -4.1490    -2.0110     0.0740 cp         1 24V      -0.013000
     12 C05         -4.6900    -3.3080     0.0890 ca         1 24V      -0.117000
     13 C06         -2.7930    -1.5100     0.0720 cp         1 24V      -0.252000
     14 C07         -1.5500    -2.1670     0.0830 ca         1 24V       0.205900
     15 N01         -0.4090    -1.4480     0.0780 nb         1 24V      -0.220000
     16 C08         -0.5320    -0.0980     0.0600 ca         1 24V       0.419900
     17 N02         -1.6810     0.6080     0.0490 nb         1 24V      -0.284000
     18 C09         -2.8150    -0.1150     0.0550 ca         1 24V       0.226500
     19 N03         -4.1910     0.2300     0.0470 na         1 24V      -0.188300
     20 C11         -4.2650     2.5140     1.2010 c5         1 24V      -0.087900
     21 C12         -4.8520     3.8930     0.7850 c5         1 24V      -0.077900
     22 C14         -4.2580     2.4870    -1.1590 c5         1 24V      -0.087900
     23 N04          0.6040     0.7030     0.0570 nu         1 24V      -0.905800
     24 C16          1.9730     0.4990     0.0490 ca         1 24V       0.572900
     25 N05          2.4090    -0.7660     0.0050 nb         1 24V      -0.646000
     26 C18          4.7240     0.0680     0.0260 ca         1 24V       0.225000
     27 C19          4.2360     1.3890     0.0650 ca         1 24V      -0.098000
     28 N06          6.1310    -0.1770     0.0090 nh         1 24V      -0.782400
     29 N07          9.0490    -0.7870     0.1360 n7         1 24V      -0.860400
     30 C23          8.5190     0.5400     0.5630 c6         1 24V       0.150800
     31 C2          -6.0980    -3.4230     0.0870 ca         1 24V       0.307900
     32 H1          -5.8140     1.5550     0.0270 h1         1 24V       0.058700
     33 H2          -5.8710     3.9840    -1.1670 hc         1 24V       0.047200
     34 H3          -4.2610     4.6950    -1.2030 hc         1 24V       0.047200
     35 H5           2.4500     2.6120     0.1040 ha         1 24V       0.122000
     36 H6           6.0950    -1.8440    -1.3440 h1         1 24V       0.045450
     37 H7           6.5840    -2.2460     0.3110 h1         1 24V       0.045450
     38 H8           8.5490    -2.3990    -1.1620 h1         1 24V       0.039700
     39 H9           8.2430    -0.7850    -1.8260 h1         1 24V       0.039700
     40 H10          6.6910     1.5070     1.2340 h1         1 24V       0.045450
     41 H11          6.9700    -0.0740     1.9710 h1         1 24V       0.045450
     42 H12         -7.0920    -0.2610     0.0460 h4         1 24V       0.022100
     43 H13         -4.0560    -4.1890     0.1010 ha         1 24V       0.127000
     44 H14         -1.4670    -3.2520     0.0970 h4         1 24V       0.027100
     45 H15         -4.6540     2.1720     2.1660 hc         1 24V       0.057200
     46 H16         -3.1740     2.5610     1.2910 hc         1 24V       0.057200
     47 H17         -4.2590     4.7220     1.1880 hc         1 24V       0.047200
     48 H18         -5.8720     4.0180     1.1680 hc         1 24V       0.047200
     49 H19         -3.1660     2.5340    -1.2420 hc         1 24V       0.057200
     50 H20         -4.6390     2.1210    -2.1190 hc         1 24V       0.057200
     51 H21          0.3660     1.6900     0.0630 hn         1 24V       0.513000
     52 H22          4.9170     2.2350     0.0710 ha         1 24V       0.121000
     53 H23          9.9970    -0.6640    -0.2440 hn         1 24V       0.415000
     54 H25          8.5990     1.2450    -0.2770 h1         1 24V       0.039700
     55 H26          9.1360     0.9370     1.3820 h1         1 24V       0.039700
     56 H27         -6.5680    -4.4060     0.0970 h4         1 24V       0.020100
     57 H4           4.0570    -2.0170    -0.0360 h4         1 24V       0.022100
@<TRIPOS>BOND
     1     1     9 ar  
     2     1    31 ar  
     3     2    19 1   
     4     2    20 1   
     5     2    22 1   
     6     2    32 1   
     7     3    21 1   
     8     3    22 1   
     9     3    33 1   
    10     3    34 1   
    11     4    25 ar  
    12     4    26 ar  
    13     4    57 1   
    14     5    24 ar  
    15     5    27 ar  
    16     5    35 1   
    17     6     7 1   
    18     6    28 1   
    19     6    36 1   
    20     6    37 1   
    21     7    29 1   
    22     7    38 1   
    23     7    39 1   
    24     8    28 1   
    25     8    30 1   
    26     8    40 1   
    27     8    41 1   
    28     9    10 ar  
    29     9    42 1   
    30    10    11 ar  
    31    10    19 1   
    32    11    12 ar  
    33    11    13 1   
    34    12    31 ar  
    35    12    43 1   
    36    13    14 ar  
    37    13    18 ar  
    38    14    15 ar  
    39    14    44 1   
    40    15    16 ar  
    41    16    17 ar  
    42    16    23 1   
    43    17    18 ar  
    44    18    19 1   
    45    20    21 1   
    46    20    45 1   
    47    20    46 1   
    48    21    47 1   
    49    21    48 1   
    50    22    49 1   
    51    22    50 1   
    52    23    24 1   
    53    23    51 1   
    54    24    25 ar  
    55    26    27 ar  
    56    26    28 1   
    57    27    52 1   
    58    29    30 1   
    59    29    53 1   
    60    30    54 1   
    61    30    55 1   
    62    31    56 1   
@<TRIPOS>SUBSTRUCTURE
     1 24V         1 TEMP              0 ****  ****    0 ROOT
