@<TRIPOS>MOLECULE
24W
   23    24     1     0     0
SMALL
bcc


@<TRIPOS>ATOM
      1 CAG         -1.7730     1.3080     0.0530 c6         1 24W       0.199100
      2 NAH         -2.6150     0.2360    -0.4330 n7         1 24W      -0.794200
      3 CAE         -2.3670    -0.9760     0.3220 c6         1 24W       0.157800
      4 CAF         -0.9830    -1.5040    -0.0200 c6         1 24W      -0.019100
      5 CAK          0.0580    -0.4150    -0.0280 ca         1 24W      -0.121300
      6 CAJ         -0.3150     0.9270    -0.0020 ca         1 24W      -0.036300
      7 CAD          0.6510     1.9320    -0.0130 ca         1 24W      -0.170000
      8 CAB          1.9930     1.5960    -0.0550 ca         1 24W      -0.090000
      9 CAC          2.3820     0.2670    -0.0970 ca         1 24W      -0.198000
     10 CAI          1.4250    -0.7510    -0.0930 ca         1 24W       0.148600
     11 NAA          1.8180    -2.0710    -0.2130 nv         1 24W      -0.820200
     12 H1          -1.9380     2.1990    -0.5580 h1         1 24W       0.038700
     13 H2          -2.0150     1.5940     1.0910 h1         1 24W       0.038700
     14 H3          -3.5840     0.5070    -0.3360 hn         1 24W       0.354800
     15 H5          -2.4350    -0.8110     1.4100 h1         1 24W       0.029700
     16 H6          -3.1190    -1.7230     0.0670 h1         1 24W       0.029700
     17 H7          -0.7270    -2.2830     0.7060 hc         1 24W       0.046700
     18 H8          -1.0050    -1.9980    -0.9980 hc         1 24W       0.046700
     19 H9           0.3470     2.9730     0.0050 ha         1 24W       0.129000
     20 H10          2.7480     2.3720    -0.0640 ha         1 24W       0.127000
     21 H11          3.4350     0.0110    -0.1370 ha         1 24W       0.128000
     22 H12          2.7810    -2.2510     0.0250 hn         1 24W       0.387300
     23 H13          1.2110    -2.7570     0.2060 hn         1 24W       0.387300
@<TRIPOS>BOND
     1     1     2 1   
     2     1     6 1   
     3     1    12 1   
     4     1    13 1   
     5     2     3 1   
     6     2    14 1   
     7     3     4 1   
     8     3    15 1   
     9     3    16 1   
    10     4     5 1   
    11     4    17 1   
    12     4    18 1   
    13     5     6 ar  
    14     5    10 ar  
    15     6     7 ar  
    16     7     8 ar  
    17     7    19 1   
    18     8     9 ar  
    19     8    20 1   
    20     9    10 ar  
    21     9    21 1   
    22    10    11 1   
    23    11    22 1   
    24    11    23 1   
@<TRIPOS>SUBSTRUCTURE
     1 24W         1 TEMP              0 ****  ****    0 ROOT
