@<TRIPOS>MOLECULE
24W
   23    24     1     0     0
SMALL
No Charge or Current Charge


@<TRIPOS>ATOM
      1 CAG         -1.7940     1.3420     0.0300 c6         1 24W       0.199100
      2 NAH         -2.7010     0.2530    -0.4010 n7         1 24W      -0.849400
      3 CAE         -2.4180    -1.0060     0.3180 c6         1 24W       0.157800
      4 CAF         -1.0000    -1.5270    -0.0120 c6         1 24W      -0.019100
      5 CAK          0.0810    -0.4260    -0.0150 ca         1 24W      -0.121300
      6 CAJ         -0.3100     0.9370    -0.0140 ca         1 24W      -0.036300
      7 CAD          0.6720     1.9460    -0.0330 ca         1 24W      -0.152000
      8 CAB          2.0340     1.6130    -0.0620 ca         1 24W      -0.072000
      9 CAC          2.4220     0.2650    -0.0740 ca         1 24W      -0.180000
     10 CAI          1.4580    -0.7530    -0.0540 ca         1 24W       0.287000
     11 NAA          1.8860    -2.0570    -0.0780 nv         1 24W      -1.069000
     12 H1          -1.9550     2.2210    -0.6110 h1         1 24W       0.038700
     13 H2          -2.0430     1.6360     1.0610 h1         1 24W       0.038700
     14 H3          -3.6690     0.5410    -0.2080 hn         1 24W       0.410000
     15 H5          -2.5020    -0.8310     1.4020 h1         1 24W       0.029700
     16 H6          -3.1630    -1.7670     0.0450 h1         1 24W       0.029700
     17 H7          -0.7430    -2.3180     0.7060 hc         1 24W       0.046700
     18 H8          -1.0200    -2.0030    -1.0020 hc         1 24W       0.046700
     19 H9           0.3760     2.9930    -0.0240 ha         1 24W       0.111000
     20 H10          2.7870     2.3980    -0.0780 ha         1 24W       0.109000
     21 H11          3.4790     0.0150    -0.1030 ha         1 24W       0.110000
     22 H12          2.8780    -2.2720     0.0080 hn         1 24W       0.442500
     23 H13          1.2200    -2.8170     0.0370 hn         1 24W       0.442500
@<TRIPOS>BOND
     1     1     2 1   
     2     1     6 1   
     3     1    12 1   
     4     1    13 1   
     5     2     3 1   
     6     2    14 1   
     7     3     4 1   
     8     3    15 1   
     9     3    16 1   
    10     4     5 1   
    11     4    17 1   
    12     4    18 1   
    13     5     6 ar  
    14     5    10 ar  
    15     6     7 ar  
    16     7     8 ar  
    17     7    19 1   
    18     8     9 ar  
    19     8    20 1   
    20     9    10 ar  
    21     9    21 1   
    22    10    11 1   
    23    11    22 1   
    24    11    23 1   
@<TRIPOS>SUBSTRUCTURE
     1 24W         1 TEMP              0 ****  ****    0 ROOT
