@<TRIPOS>MOLECULE
24X
   63    65     1     0     0
SMALL
abcg2


@<TRIPOS>ATOM
      1 N1           7.6980    -2.1910     3.1770 nb         1 24X      -0.721000
      2 C2           6.6340    -2.9650     3.2710 ca         1 24X       0.444900
      3 C3           5.4260    -2.5880     3.8500 ca         1 24X      -0.310900
      4 C4           5.3720    -1.2900     4.3620 ca         1 24X      -0.021000
      5 C5           6.4640    -0.4580     4.2720 ca         1 24X      -0.273000
      6 C6           7.6320    -0.9380     3.6470 ca         1 24X       0.643900
      7 C7           8.7710     1.2450     3.6450 c3         1 24X       0.276100
      8 N2           8.7520    -0.1940     3.5080 nu         1 24X      -0.913100
      9 C8           8.3800     0.8110     0.7870 cp         1 24X      -0.034000
     10 C17          7.1270     1.4200     0.7560 ca         1 24X      -0.136000
     11 C21          6.0050     0.7280     0.3350 ca         1 24X      -0.115000
     12 C23          6.1200    -0.5920    -0.0920 ca         1 24X      -0.167600
     13 C26          7.3810    -1.1770    -0.1160 ca         1 24X      -0.024000
     14 C29          8.5090    -0.5070     0.3400 ca         1 24X      -0.121600
     15 C9           9.8240    -1.2630     0.3990 c          1 24X       0.719600
     16 O2          10.5280    -1.0770     1.4160 o          1 24X      -0.703000
     17 O1          10.0780    -2.0200    -0.5510 o          1 24X      -0.703000
     18 C10          4.9570    -1.4100    -0.5530 c          1 24X       0.616700
     19 N3           3.7410    -0.9900    -0.1630 ns         1 24X      -0.506900
     20 O4           5.1210    -2.4000    -1.2570 o          1 24X      -0.607100
     21 C11          2.5190    -1.6890    -0.4940 c3         1 24X       0.110000
     22 C18          2.1060    -2.7430     0.5330 c3         1 24X      -0.095700
     23 C12          1.8110    -2.1130     1.8890 c3         1 24X      -0.082600
     24 C13          0.8920    -3.5050     0.0130 c3         1 24X      -0.082600
     25 C14          4.2950    -3.5360     3.9070 ce         1 24X       0.681800
     26 N4           3.3690    -3.2770     4.8820 nv         1 24X      -1.083200
     27 N5           4.2290    -4.4830     3.0480 n2         1 24X      -0.831100
     28 C15         11.4850     2.9500     0.7970 ca         1 24X      -0.090000
     29 C19         11.6700     3.2140     2.1520 ca         1 24X      -0.083800
     30 C22         10.7690     2.6460     3.0590 ca         1 24X      -0.080000
     31 C24          9.7110     1.8590     2.6380 ca         1 24X      -0.097300
     32 C27          9.5350     1.6080     1.2700 cp         1 24X       0.043000
     33 C30         10.4300     2.1590     0.3650 ca         1 24X      -0.090000
     34 C16         13.0670     4.4760     3.8040 c2         1 24X      -0.341000
     35 HN41         2.6570    -3.9740     5.0350 hn         1 24X       0.449000
     36 HN42         3.6800    -2.8340     5.7300 hn         1 24X       0.449000
     37 HN5          3.4260    -5.0800     3.2260 hn         1 24X       0.352400
     38 H2           6.7370    -3.9690     2.8720 h4         1 24X       0.035100
     39 H5           6.4150     0.5410     4.6820 ha         1 24X       0.110000
     40 H4           4.4670    -0.9130     4.8250 ha         1 24X       0.096000
     41 HN2          9.4560    -0.5920     2.8790 hn         1 24X       0.572000
     42 H71          9.0680     1.5500     4.6530 h1         1 24X       0.033700
     43 H72          7.7670     1.6510     3.4840 h1         1 24X       0.033700
     44 H22         10.8990     2.8120     4.1220 ha         1 24X       0.101000
     45 H20         13.4510     4.3730     1.7640 ha         1 24X       0.160000
     46 H161        13.9280     5.1020     3.9970 ha         1 24X       0.155000
     47 H162        12.4580     4.2190     4.6620 ha         1 24X       0.155000
     48 H15         12.1710     3.3690     0.0710 ha         1 24X       0.100000
     49 H30         10.3010     1.9690    -0.6940 ha         1 24X       0.123000
     50 H17          7.0260     2.4540     1.0620 ha         1 24X       0.094000
     51 H21          5.0560     1.2500     0.3230 ha         1 24X       0.088000
     52 H26          7.4850    -2.1950    -0.4640 ha         1 24X       0.155000
     53 HN3          3.6770    -0.2590     0.5240 hn         1 24X       0.309500
     54 H111         2.6410    -2.1480    -1.4750 h1         1 24X       0.044200
     55 H112         1.7250    -0.9430    -0.5900 h1         1 24X       0.044200
     56 H18          2.9370    -3.4460     0.6590 hc         1 24X       0.087700
     57 H121         1.0160    -1.3670     1.8060 hc         1 24X       0.027033
     58 H122         1.4890    -2.8680     2.6070 hc         1 24X       0.027033
     59 H123         2.6900    -1.6290     2.3150 hc         1 24X       0.027033
     60 H131         0.0290    -2.8430    -0.0980 hc         1 24X       0.027033
     61 H132         0.6050    -4.3030     0.7000 hc         1 24X       0.027033
     62 H133         1.0870    -3.9620    -0.9590 hc         1 24X       0.027033
     63 C20         12.7930     4.0610     2.5680 ce         1 24X      -0.132200
@<TRIPOS>BOND
     1     1     2 ar  
     2     1     6 ar  
     3     2     3 ar  
     4     2    38 1   
     5     3     4 ar  
     6     3    25 1   
     7     4     5 ar  
     8     4    40 1   
     9     5     6 ar  
    10     5    39 1   
    11     6     8 1   
    12     7     8 1   
    13     7    31 1   
    14     7    42 1   
    15     7    43 1   
    16     8    41 1   
    17     9    10 ar  
    18     9    14 ar  
    19     9    32 1   
    20    10    11 ar  
    21    10    50 1   
    22    11    12 ar  
    23    11    51 1   
    24    12    13 ar  
    25    12    18 1   
    26    13    14 ar  
    27    13    52 1   
    28    14    15 1   
    29    15    16 1   
    30    15    17 1   
    31    18    19 1   
    32    18    20 2   
    33    19    21 1   
    34    19    53 1   
    35    21    22 1   
    36    21    54 1   
    37    21    55 1   
    38    22    23 1   
    39    22    24 1   
    40    22    56 1   
    41    23    57 1   
    42    23    58 1   
    43    23    59 1   
    44    24    60 1   
    45    24    61 1   
    46    24    62 1   
    47    25    26 1   
    48    25    27 2   
    49    26    35 1   
    50    26    36 1   
    51    27    37 1   
    52    28    29 ar  
    53    28    33 ar  
    54    28    48 1   
    55    29    30 ar  
    56    29    63 1   
    57    30    31 ar  
    58    30    44 1   
    59    31    32 ar  
    60    32    33 ar  
    61    33    49 1   
    62    34    46 1   
    63    34    47 1   
    64    34    63 2   
    65    45    63 1   
@<TRIPOS>SUBSTRUCTURE
     1 24X         1 TEMP              0 ****  ****    0 ROOT
