@<TRIPOS>MOLECULE
24X
   63    65     1     0     0
SMALL
No Charge or Current Charge


@<TRIPOS>ATOM
      1 N1           7.7230    -2.1110     3.2290 nb         1 24X      -0.721000
      2 C2           6.6990    -2.9850     3.3440 ca         1 24X       0.444900
      3 C3           5.5210    -2.7100     4.0640 ca         1 24X      -0.310900
      4 C4           5.3930    -1.4440     4.6730 ca         1 24X      -0.021000
      5 C5           6.4570    -0.5420     4.5470 ca         1 24X      -0.273000
      6 C6           7.5820    -0.9300     3.8130 ca         1 24X       0.643900
      7 C7           8.6260     1.3330     3.5840 c3         1 24X       0.276100
      8 N2           8.6560    -0.1280     3.5920 nu         1 24X      -0.913100
      9 C8           8.3480     0.8550     0.6570 cp         1 24X      -0.034000
     10 C17          7.0640     1.4370     0.5620 ca         1 24X      -0.136000
     11 C21          5.9550     0.6980     0.1200 ca         1 24X      -0.115000
     12 C23          6.0990    -0.6590    -0.2590 ca         1 24X      -0.167600
     13 C26          7.3820    -1.2440    -0.2000 ca         1 24X      -0.024000
     14 C29          8.4860    -0.5040     0.2610 ca         1 24X      -0.121600
     15 C9           9.8360    -1.1550     0.4390 c          1 24X       0.719600
     16 O2          10.3710    -1.0920     1.5380 o          1 24X      -0.703000
     17 O1          10.2700    -1.8260    -0.4860 o          1 24X      -0.703000
     18 C10          4.9210    -1.5110    -0.6810 c          1 24X       0.616700
     19 N3           3.6780    -0.9320    -0.5590 ns         1 24X      -0.506900
     20 O4           5.0570    -2.6530    -1.0990 o          1 24X      -0.607100
     21 C11          2.4050    -1.6280    -0.7610 c3         1 24X       0.110000
     22 C18          2.0560    -2.5970     0.3980 c3         1 24X      -0.095700
     23 C12          2.0150    -1.8890     1.7750 c3         1 24X      -0.082600
     24 C13          0.7330    -3.3420     0.1140 c3         1 24X      -0.082600
     25 C14          4.4500    -3.7270     4.1040 ce         1 24X       0.681800
     26 N4           3.5380    -3.6290     5.0860 nv         1 24X      -1.083200
     27 N5           4.4300    -4.7450     3.3530 n2         1 24X      -0.831100
     28 C15         11.5360     2.9430     0.7900 ca         1 24X      -0.090000
     29 C19         11.6830     3.1820     2.1690 ca         1 24X      -0.083800
     30 C22         10.7270     2.6470     3.0600 ca         1 24X      -0.080000
     31 C24          9.6350     1.8920     2.5850 ca         1 24X      -0.097300
     32 C27          9.4860     1.6620     1.1900 cp         1 24X       0.043000
     33 C30         10.4520     2.1920     0.3080 ca         1 24X      -0.090000
     34 C16         13.0410     4.4550     3.8960 c2         1 24X      -0.341000
     35 HN41         3.1120    -4.4990     5.3790 hn         1 24X       0.449000
     36 HN42         3.7740    -2.9860     5.8310 hn         1 24X       0.449000
     37 HN5          3.5150    -5.1950     3.4570 hn         1 24X       0.352400
     38 H2           6.8470    -3.9420     2.8440 h4         1 24X       0.035100
     39 H5           6.3990     0.4410     5.0010 ha         1 24X       0.110000
     40 H4           4.4970    -1.1530     5.2180 ha         1 24X       0.096000
     41 HN2          9.2660    -0.5600     2.8860 hn         1 24X       0.572000
     42 H71          8.8230     1.7170     4.5940 h1         1 24X       0.033700
     43 H72          7.6280     1.6840     3.2890 h1         1 24X       0.033700
     44 H22         10.8280     2.8040     4.1290 ha         1 24X       0.101000
     45 H20         13.5960     4.2000     1.8740 ha         1 24X       0.160000
     46 H161        13.9270     5.0380     4.1480 ha         1 24X       0.155000
     47 H162        12.3320     4.2890     4.7060 ha         1 24X       0.155000
     48 H15         12.2620     3.3420     0.0860 ha         1 24X       0.100000
     49 H30         10.3540     2.0170    -0.7600 ha         1 24X       0.123000
     50 H17          6.9270     2.4750     0.8570 ha         1 24X       0.094000
     51 H21          4.9900     1.1940     0.0840 ha         1 24X       0.088000
     52 H26          7.5220    -2.2890    -0.4680 ha         1 24X       0.155000
     53 HN3          3.6550     0.0150    -0.2050 hn         1 24X       0.309500
     54 H111         2.4540    -2.1850    -1.7060 h1         1 24X       0.044200
     55 H112         1.6120    -0.8740    -0.8580 h1         1 24X       0.044200
     56 H18          2.8470    -3.3550     0.4460 hc         1 24X       0.087700
     57 H121         1.2720    -1.0820     1.7770 hc         1 24X       0.027033
     58 H122         1.7500    -2.5990     2.5670 hc         1 24X       0.027033
     59 H123         2.9910    -1.4590     2.0280 hc         1 24X       0.027033
     60 H131        -0.1080    -2.6400     0.0590 hc         1 24X       0.027033
     61 H132         0.5200    -4.0710     0.9060 hc         1 24X       0.027033
     62 H133         0.7900    -3.8850    -0.8370 hc         1 24X       0.027033
     63 C20         12.8510     3.9840     2.6430 ce         1 24X      -0.132200
@<TRIPOS>BOND
     1     1     2 ar  
     2     1     6 ar  
     3     2     3 ar  
     4     2    38 1   
     5     3     4 ar  
     6     3    25 1   
     7     4     5 ar  
     8     4    40 1   
     9     5     6 ar  
    10     5    39 1   
    11     6     8 1   
    12     7     8 1   
    13     7    31 1   
    14     7    42 1   
    15     7    43 1   
    16     8    41 1   
    17     9    10 ar  
    18     9    14 ar  
    19     9    32 1   
    20    10    11 ar  
    21    10    50 1   
    22    11    12 ar  
    23    11    51 1   
    24    12    13 ar  
    25    12    18 1   
    26    13    14 ar  
    27    13    52 1   
    28    14    15 1   
    29    15    16 1   
    30    15    17 1   
    31    18    19 1   
    32    18    20 2   
    33    19    21 1   
    34    19    53 1   
    35    21    22 1   
    36    21    54 1   
    37    21    55 1   
    38    22    23 1   
    39    22    24 1   
    40    22    56 1   
    41    23    57 1   
    42    23    58 1   
    43    23    59 1   
    44    24    60 1   
    45    24    61 1   
    46    24    62 1   
    47    25    26 1   
    48    25    27 2   
    49    26    35 1   
    50    26    36 1   
    51    27    37 1   
    52    28    29 ar  
    53    28    33 ar  
    54    28    48 1   
    55    29    30 ar  
    56    29    63 1   
    57    30    31 ar  
    58    30    44 1   
    59    31    32 ar  
    60    32    33 ar  
    61    33    49 1   
    62    34    46 1   
    63    34    47 1   
    64    34    63 2   
    65    45    63 1   
@<TRIPOS>SUBSTRUCTURE
     1 24X         1 TEMP              0 ****  ****    0 ROOT
