@<TRIPOS>MOLECULE
24Y
   40    43     1     0     0
SMALL
abcg2


@<TRIPOS>ATOM
      1 CL           4.7640    -0.3570    -1.0650 cl         1 24Y      -0.147000
      2 C9           3.3820    -1.0630    -0.3270 cc         1 24Y      -0.049200
      3 C8           2.1680    -0.4650    -0.3820 cd         1 24Y      -0.062000
      4 C10          3.5980    -2.3310     0.3390 c          1 24Y       0.561200
      5 O            4.6630    -2.9160     0.4290 o          1 24Y      -0.520000
      6 N2           2.4380    -2.8490     0.8810 ns         1 24Y      -0.359100
      7 C11          1.2240    -2.2750     0.8420 cc         1 24Y       0.028600
      8 C7           1.0390    -1.0720     0.2290 cd         1 24Y      -0.249800
      9 C6          -0.2970    -0.4980     0.1930 cd         1 24Y       0.541300
     10 N3          -1.4120    -1.1890     0.1370 nc         1 24Y      -0.715000
     11 C12         -2.3820    -0.2450     0.1130 cc         1 24Y       0.602500
     12 C13         -3.8080    -0.5640     0.0470 ca         1 24Y      -0.124500
     13 C18         -4.7620     0.4500    -0.0530 ca         1 24Y      -0.077000
     14 C17         -6.1100     0.1350    -0.1160 ca         1 24Y      -0.121000
     15 C16         -6.5230    -1.1910    -0.0800 ca         1 24Y      -0.097000
     16 C15         -5.5770    -2.2030     0.0190 ca         1 24Y      -0.121000
     17 C14         -4.2270    -1.8930     0.0810 ca         1 24Y      -0.077000
     18 N4          -1.9230     0.9840     0.1430 nd         1 24Y      -0.520800
     19 N1          -0.5950     0.8180     0.1950 na         1 24Y      -0.072200
     20 C5           0.2640     1.9310     0.3810 ca         1 24Y       0.435500
     21 C1           0.2370     2.9870    -0.5280 ca         1 24Y      -0.085300
     22 C           -0.6460     3.0100    -1.7350 c3         1 24Y      -0.044800
     23 N            1.0490     1.8510     1.4370 nb         1 24Y      -0.666000
     24 C4           1.8880     2.8510     1.6680 ca         1 24Y       0.348900
     25 C3           1.9500     3.9710     0.8550 ca         1 24Y      -0.151000
     26 C2           1.1140     4.0320    -0.2480 ca         1 24Y      -0.076000
     27 H1           2.0640     0.4670    -0.9230 ha         1 24Y       0.201000
     28 H2           0.4250    -2.8170     1.3260 h4         1 24Y       0.225000
     29 H4          -4.4500     1.4850    -0.0840 ha         1 24Y       0.128000
     30 H5          -6.8420     0.9280    -0.1940 ha         1 24Y       0.113500
     31 H6          -7.5770    -1.4330    -0.1290 ha         1 24Y       0.112000
     32 H7          -5.8900    -3.2390     0.0470 ha         1 24Y       0.113500
     33 H8          -3.4940    -2.6850     0.1560 ha         1 24Y       0.128000
     34 H9          -1.6860     3.1890    -1.4640 hc         1 24Y       0.055700
     35 H10         -0.3340     3.7990    -2.4170 hc         1 24Y       0.055700
     36 H11         -0.6140     2.0660    -2.2800 hc         1 24Y       0.055700
     37 H12          2.5300     2.7550     2.5350 h4         1 24Y       0.031100
     38 H13          2.6410     4.7720     1.0770 ha         1 24Y       0.133000
     39 H14          1.1510     4.8860    -0.9120 ha         1 24Y       0.127000
     40 H15          2.5280    -3.7360     1.3600 hn         1 24Y       0.335500
@<TRIPOS>BOND
     1     1     2 1   
     2     2     3 2   
     3     2     4 1   
     4     3     8 1   
     5     3    27 1   
     6     4     5 2   
     7     4     6 1   
     8     6     7 1   
     9     6    40 1   
    10     7     8 2   
    11     7    28 1   
    12     8     9 1   
    13     9    10 2   
    14     9    19 1   
    15    10    11 1   
    16    11    12 1   
    17    11    18 2   
    18    12    13 ar  
    19    12    17 ar  
    20    13    14 ar  
    21    13    29 1   
    22    14    15 ar  
    23    14    30 1   
    24    15    16 ar  
    25    15    31 1   
    26    16    17 ar  
    27    16    32 1   
    28    17    33 1   
    29    18    19 1   
    30    19    20 1   
    31    20    21 ar  
    32    20    23 ar  
    33    21    22 1   
    34    21    26 ar  
    35    22    34 1   
    36    22    35 1   
    37    22    36 1   
    38    23    24 ar  
    39    24    25 ar  
    40    24    37 1   
    41    25    26 ar  
    42    25    38 1   
    43    26    39 1   
@<TRIPOS>SUBSTRUCTURE
     1 24Y         1 TEMP              0 ****  ****    0 ROOT
