@<TRIPOS>MOLECULE
24Y
   40    43     1     0     0
SMALL
No Charge or Current Charge


@<TRIPOS>ATOM
      1 Cl           4.9300    -0.0010     0.5360 cl         1 24Y      -0.147000
      2 C9           3.4010    -0.8010     0.2790 cc         1 24Y      -0.049200
      3 C8           2.2110    -0.1170     0.4440 cd         1 24Y      -0.062000
      4 C10          3.4540    -2.2290    -0.1150 c          1 24Y       0.561200
      5 O            4.4800    -2.8760    -0.2760 o          1 24Y      -0.520000
      6 N2           2.2220    -2.7980    -0.2900 ns         1 24Y      -0.359100
      7 C11          1.0040    -2.1540    -0.1360 cc         1 24Y       0.028600
      8 C7           0.9510    -0.8120     0.2200 cd         1 24Y      -0.249800
      9 C6          -0.3910    -0.2410     0.3430 cd         1 24Y       0.541300
     10 N3          -1.4890    -0.9580     0.1980 nc         1 24Y      -0.715000
     11 C12         -2.5100    -0.0660     0.3890 cc         1 24Y       0.602500
     12 C13         -3.9140    -0.5130     0.3000 ca         1 24Y      -0.124500
     13 C18         -4.9750     0.4070     0.4780 ca         1 24Y      -0.077000
     14 C17         -6.3140    -0.0130     0.3930 ca         1 24Y      -0.121000
     15 C16         -6.6170    -1.3570     0.1280 ca         1 24Y      -0.097000
     16 C15         -5.5780    -2.2820    -0.0520 ca         1 24Y      -0.121000
     17 C14         -4.2370    -1.8660     0.0330 ca         1 24Y      -0.077000
     18 N4          -2.1680     1.1890     0.6250 nd         1 24Y      -0.520800
     19 N1          -0.8040     1.0620     0.6140 na         1 24Y      -0.072200
     20 C5           0.1240     2.1010     0.6370 ca         1 24Y       0.435500
     21 C1           0.5790     2.6250    -0.6110 ca         1 24Y      -0.085300
     22 C            0.0950     2.0720    -1.9540 c3         1 24Y      -0.044800
     23 N            0.5540     2.6260     1.8150 nb         1 24Y      -0.666000
     24 C4           1.4380     3.6470     1.8020 ca         1 24Y       0.348900
     25 C3           1.9430     4.1980     0.6180 ca         1 24Y      -0.151000
     26 C2           1.5080     3.6830    -0.6100 ca         1 24Y      -0.076000
     27 H1           2.2780     0.9170     0.7530 ha         1 24Y       0.201000
     28 H2           0.1550    -2.8070    -0.3300 h4         1 24Y       0.225000
     29 H4          -4.7690     1.4560     0.6850 ha         1 24Y       0.128000
     30 H5          -7.1180     0.7070     0.5330 ha         1 24Y       0.113500
     31 H6          -7.6540    -1.6810     0.0620 ha         1 24Y       0.112000
     32 H7          -5.8090    -3.3250    -0.2580 ha         1 24Y       0.113500
     33 H8          -3.4520    -2.6060    -0.1110 ha         1 24Y       0.128000
     34 H9          -1.0000     2.0380    -2.0030 hc         1 24Y       0.055700
     35 H10          0.4340     2.6910    -2.7930 hc         1 24Y       0.055700
     36 H11          0.4740     1.0580    -2.1250 hc         1 24Y       0.055700
     37 H12          1.7540     4.0300     2.7720 h4         1 24Y       0.031100
     38 H13          2.6560     5.0170     0.6590 ha         1 24Y       0.133000
     39 H14          1.8830     4.1020    -1.5420 ha         1 24Y       0.127000
     40 H15          2.2390    -3.7760    -0.5560 hn         1 24Y       0.335500
@<TRIPOS>BOND
     1     1     2 1   
     2     2     3 2   
     3     2     4 1   
     4     3     8 1   
     5     3    27 1   
     6     4     5 2   
     7     4     6 1   
     8     6     7 1   
     9     6    40 1   
    10     7     8 2   
    11     7    28 1   
    12     8     9 1   
    13     9    10 2   
    14     9    19 1   
    15    10    11 1   
    16    11    12 1   
    17    11    18 2   
    18    12    13 ar  
    19    12    17 ar  
    20    13    14 ar  
    21    13    29 1   
    22    14    15 ar  
    23    14    30 1   
    24    15    16 ar  
    25    15    31 1   
    26    16    17 ar  
    27    16    32 1   
    28    17    33 1   
    29    18    19 1   
    30    19    20 1   
    31    20    21 ar  
    32    20    23 ar  
    33    21    22 1   
    34    21    26 ar  
    35    22    34 1   
    36    22    35 1   
    37    22    36 1   
    38    23    24 ar  
    39    24    25 ar  
    40    24    37 1   
    41    25    26 ar  
    42    25    38 1   
    43    26    39 1   
@<TRIPOS>SUBSTRUCTURE
     1 24Y         1 TEMP              0 ****  ****    0 ROOT
