@<TRIPOS>MOLECULE
24Z
   45    46     1     0     0
SMALL
abcg2


@<TRIPOS>ATOM
      1 N01          2.2880     0.0790    -0.1020 nu         1 24Z      -0.962200
      2 N02          2.9730    -4.0350     0.4170 nt         1 24Z      -0.597000
      3 N03          5.3140     3.0680     1.1940 nb         1 24Z      -0.670000
      4 N04         -2.4060    -0.6000    -0.1230 nu         1 24Z      -0.912200
      5 N05         -1.9590    -3.5140    -0.2200 no         1 24Z       0.718200
      6 C06          0.3840    -3.0160    -0.1140 ca         1 24Z       0.073000
      7 C07          1.4830    -2.1960    -0.0580 ca         1 24Z      -0.317600
      8 C08          1.2560    -0.7760    -0.0970 ca         1 24Z       0.469000
      9 C09         -0.0550    -0.3020    -0.1070 ca         1 24Z      -0.363000
     10 C10         -1.1810    -1.1360    -0.1260 ca         1 24Z       0.482000
     11 C11         -0.9290    -2.5470    -0.1560 ca         1 24Z      -0.365200
     12 C13          2.1530     1.5170    -0.1160 c3         1 24Z       0.280100
     13 C14          3.5130     2.1520    -0.0980 ca         1 24Z      -0.160300
     14 C15          4.1080     2.5230     1.1030 ca         1 24Z       0.356900
     15 C16          5.9910     3.2660     0.0690 ca         1 24Z       0.340900
     16 C17          5.4970     2.9320    -1.1840 ca         1 24Z      -0.168000
     17 C18          4.2350     2.3650    -1.2660 ca         1 24Z      -0.052000
     18 C19         -2.6790     0.8190    -0.0580 c3         1 24Z       0.201800
     19 C20         -4.1760     1.0710     0.0290 c3         1 24Z      -0.071400
     20 C21         -4.4810     2.5570     0.1040 c3         1 24Z      -0.208400
     21 C22         -5.9730     2.9260     0.1960 c          1 24Z       0.719000
     22 O23          3.8500    -2.0910    -0.2700 o          1 24Z      -0.660100
     23 O24         -6.2270     4.1480     0.2470 o          1 24Z      -0.734000
     24 O25         -6.8040     1.9970     0.2090 o          1 24Z      -0.734000
     25 O26         -3.1270    -3.1450    -0.2300 o          1 24Z      -0.447000
     26 O27         -1.6700    -4.6960    -0.2640 o          1 24Z      -0.447000
     27 HN01         3.2090    -0.3350    -0.1720 hn         1 24Z       0.538000
     28 H102         2.2200    -4.5550     0.8300 hn         1 24Z       0.313500
     29 H202         3.8940    -4.4360     0.4990 hn         1 24Z       0.313500
     30 HN04        -3.1870    -1.2330    -0.1500 hn         1 24Z       0.537000
     31 H06          0.5210    -4.0880    -0.1410 ha         1 24Z       0.131000
     32 H09         -0.2140     0.7650    -0.1160 ha         1 24Z       0.129000
     33 H113         1.6040     1.8460    -1.0060 h1         1 24Z       0.055200
     34 H213         1.5790     1.8530     0.7530 h1         1 24Z       0.055200
     35 H15          3.5720     2.3740     2.0350 h4         1 24Z       0.023100
     36 H16          6.9730     3.7150     0.1660 h4         1 24Z       0.015100
     37 H17          6.0870     3.1160    -2.0710 ha         1 24Z       0.123000
     38 H18          3.8150     2.0950    -2.2270 ha         1 24Z       0.125000
     39 H119        -2.1820     1.2540     0.8160 h1         1 24Z       0.039200
     40 H219        -2.2680     1.3270    -0.9390 h1         1 24Z       0.039200
     41 H120        -4.6710     0.6300    -0.8400 hc         1 24Z       0.055200
     42 H220        -4.5740     0.5600     0.9100 hc         1 24Z       0.055200
     43 H121        -3.9660     2.9970     0.9660 hc         1 24Z       0.018200
     44 H221        -4.0600     3.0660    -0.7700 hc         1 24Z       0.018200
     45 C12          2.8540    -2.7590     0.0190 c          1 24Z       0.642700
@<TRIPOS>BOND
     1     1     8 1   
     2     1    12 1   
     3     1    27 1   
     4     2    28 1   
     5     2    29 1   
     6     2    45 1   
     7     3    14 ar  
     8     3    15 ar  
     9     4    10 1   
    10     4    18 1   
    11     4    30 1   
    12     5    11 1   
    13     5    25 1   
    14     5    26 1   
    15     6     7 ar  
    16     6    11 ar  
    17     6    31 1   
    18     7     8 ar  
    19     7    45 1   
    20     8     9 ar  
    21     9    10 ar  
    22     9    32 1   
    23    10    11 ar  
    24    12    13 1   
    25    12    33 1   
    26    12    34 1   
    27    13    14 ar  
    28    13    17 ar  
    29    14    35 1   
    30    15    16 ar  
    31    15    36 1   
    32    16    17 ar  
    33    16    37 1   
    34    17    38 1   
    35    18    19 1   
    36    18    39 1   
    37    18    40 1   
    38    19    20 1   
    39    19    41 1   
    40    19    42 1   
    41    20    21 1   
    42    20    43 1   
    43    20    44 1   
    44    21    23 1   
    45    21    24 1   
    46    22    45 2   
@<TRIPOS>SUBSTRUCTURE
     1 24Z         1 TEMP              0 ****  ****    0 ROOT
