@<TRIPOS>MOLECULE
24Z
   45    46     1     0     0
SMALL
No Charge or Current Charge


@<TRIPOS>ATOM
      1 N01          2.3000     0.2000    -0.3100 nu         1 24Z      -0.962200
      2 N02          3.0340    -3.9810     0.0070 nt         1 24Z      -0.597000
      3 N03          5.8580     2.7640     1.2090 nb         1 24Z      -0.670000
      4 N04         -2.4280    -0.4900    -0.1510 nu         1 24Z      -0.912200
      5 N05         -2.0830    -3.3790     0.0330 no         1 24Z       0.718200
      6 C06          0.3630    -2.9350    -0.0450 ca         1 24Z       0.073000
      7 C07          1.4820    -2.0790    -0.1330 ca         1 24Z      -0.317600
      8 C08          1.2490    -0.6940    -0.2190 ca         1 24Z       0.469000
      9 C09         -0.0490    -0.1890    -0.2270 ca         1 24Z      -0.363000
     10 C10         -1.1500    -1.0360    -0.1310 ca         1 24Z       0.482000
     11 C11         -0.9500    -2.4200    -0.0390 ca         1 24Z      -0.365200
     12 C13          2.3750     1.5170     0.3270 c3         1 24Z       0.280100
     13 C14          3.7730     2.0790     0.1640 ca         1 24Z      -0.160300
     14 C15          4.6030     2.2590     1.2870 ca         1 24Z       0.356900
     15 C16          6.3240     3.1090    -0.0130 ca         1 24Z       0.340900
     16 C17          5.5650     2.9660    -1.1870 ca         1 24Z      -0.168000
     17 C18          4.2650     2.4430    -1.1040 ca         1 24Z      -0.052000
     18 C19         -2.8070     0.9270    -0.0930 c3         1 24Z       0.201800
     19 C20         -4.3410     1.0770    -0.0810 c3         1 24Z      -0.071400
     20 C21         -4.8070     2.5540    -0.0260 c3         1 24Z      -0.208400
     21 C22         -6.3440     2.6270    -0.0180 c          1 24Z       0.719000
     22 O23          3.8890    -1.9740    -0.2700 o          1 24Z      -0.660100
     23 O24         -6.9240     2.6670    -1.0920 o          1 24Z      -0.734000
     24 O25         -6.9170     2.5870     1.0610 o          1 24Z      -0.734000
     25 O26         -3.1150    -3.0370     0.6260 o          1 24Z      -0.447000
     26 O27         -1.9120    -4.5090    -0.4380 o          1 24Z      -0.447000
     27 HN01         3.1940    -0.3060    -0.3630 hn         1 24Z       0.538000
     28 H102         2.2340    -4.5810     0.1250 hn         1 24Z       0.313500
     29 H202         3.9660    -4.3650     0.0030 hn         1 24Z       0.313500
     30 HN04        -3.1570    -1.1700     0.0790 hn         1 24Z       0.537000
     31 H06          0.5000    -4.0120     0.0230 ha         1 24Z       0.131000
     32 H09         -0.1980     0.8790    -0.3170 ha         1 24Z       0.129000
     33 H113         1.6520     2.2090    -0.1270 h1         1 24Z       0.055200
     34 H213         2.1310     1.4330     1.3960 h1         1 24Z       0.055200
     35 H15          4.2550     1.9910     2.2840 h4         1 24Z       0.023100
     36 H16          7.3350     3.5120    -0.0510 h4         1 24Z       0.015100
     37 H17          5.9850     3.2590    -2.1450 ha         1 24Z       0.123000
     38 H18          3.6550     2.3220    -1.9970 ha         1 24Z       0.125000
     39 H119        -2.3920     1.3880     0.8140 h1         1 24Z       0.039200
     40 H219        -2.3990     1.4600    -0.9640 h1         1 24Z       0.039200
     41 H120        -4.7550     0.6030    -0.9810 hc         1 24Z       0.055200
     42 H220        -4.7490     0.5390     0.7830 hc         1 24Z       0.055200
     43 H121        -4.3990     2.9630     0.9070 hc         1 24Z       0.018200
     44 H221        -4.4050     3.0300    -0.9290 hc         1 24Z       0.018200
     45 C12          2.8810    -2.6500    -0.1370 c          1 24Z       0.642700
@<TRIPOS>BOND
     1     1     8 1   
     2     1    12 1   
     3     1    27 1   
     4     2    28 1   
     5     2    29 1   
     6     2    45 1   
     7     3    14 ar  
     8     3    15 ar  
     9     4    10 1   
    10     4    18 1   
    11     4    30 1   
    12     5    11 1   
    13     5    25 1   
    14     5    26 1   
    15     6     7 ar  
    16     6    11 ar  
    17     6    31 1   
    18     7     8 ar  
    19     7    45 1   
    20     8     9 ar  
    21     9    10 ar  
    22     9    32 1   
    23    10    11 ar  
    24    12    13 1   
    25    12    33 1   
    26    12    34 1   
    27    13    14 ar  
    28    13    17 ar  
    29    14    35 1   
    30    15    16 ar  
    31    15    36 1   
    32    16    17 ar  
    33    16    37 1   
    34    17    38 1   
    35    18    19 1   
    36    18    39 1   
    37    18    40 1   
    38    19    20 1   
    39    19    41 1   
    40    19    42 1   
    41    20    21 1   
    42    20    43 1   
    43    20    44 1   
    44    21    23 1   
    45    21    24 1   
    46    22    45 2   
@<TRIPOS>SUBSTRUCTURE
     1 24Z         1 TEMP              0 ****  ****    0 ROOT
