@<TRIPOS>MOLECULE
250
   36    36     1     0     0
SMALL
abcg2


@<TRIPOS>ATOM
      1 O1           4.6100    -0.6680     1.1220 o          1 250      -0.693533
      2 S1           4.2670     0.2300     0.0020 s6         1 250       1.326600
      3 O2           3.8760     1.5850     0.4370 o          1 250      -0.693533
      4 O3           5.3000     0.2360    -1.0540 o          1 250      -0.693533
      5 C1           2.8050    -0.4680    -0.7940 c3         1 250      -0.399400
      6 C2           1.5160    -0.3050    -0.0010 c3         1 250       0.218300
      7 O4           1.6040    -0.7990     1.3130 oh         1 250      -0.642000
      8 C3           0.3680    -0.9550    -0.7740 c3         1 250       0.135800
      9 N1          -0.9220    -0.7640    -0.1460 n3         1 250      -0.706600
     10 C7          -1.4300     0.5840    -0.3090 c6         1 250       0.166800
     11 C6          -2.7410     0.7640     0.4330 c6         1 250       0.163300
     12 N2          -3.7310    -0.1920    -0.0260 n3         1 250      -0.703600
     13 C5          -3.2160    -1.5410     0.1090 c6         1 250       0.163300
     14 C4          -1.9070    -1.7060    -0.6380 c6         1 250       0.166800
     15 C8          -5.0010    -0.0680     0.6620 c3         1 250       0.171800
     16 C9          -5.7070     1.2580     0.4660 c3         1 250       0.164600
     17 O5          -5.9230     1.4830    -0.9080 oh         1 250      -0.639000
     18 H11          2.7010     0.0340    -1.7580 h1         1 250       0.068200
     19 H12          3.0210    -1.5210    -0.9980 h1         1 250       0.068200
     20 H2           1.3250     0.7670     0.1010 h1         1 250       0.079700
     21 HO4          2.0530    -1.6510     1.2960 ho         1 250       0.442000
     22 H31          0.3750    -0.5830    -1.8140 h1         1 250       0.025200
     23 H32          0.5610    -2.0320    -0.8350 h1         1 250       0.025200
     24 H71         -0.7120     1.3050     0.0840 h1         1 250       0.036700
     25 H72         -1.5810     0.8270    -1.3760 h1         1 250       0.036700
     26 H61         -2.5600     0.6710     1.5180 h1         1 250       0.031700
     27 H62         -3.0940     1.7800     0.2500 h1         1 250       0.031700
     28 H51         -3.0580    -1.8100     1.1690 h1         1 250       0.031700
     29 H52         -3.9500    -2.2440    -0.2940 h1         1 250       0.031700
     30 H41         -2.0880    -1.5830    -1.7200 h1         1 250       0.036700
     31 H42         -1.5400    -2.7240    -0.4840 h1         1 250       0.036700
     32 H81         -5.6550    -0.8690     0.3040 h1         1 250       0.030200
     33 H82         -4.8920    -0.2220     1.7500 h1         1 250       0.030200
     34 H91         -6.6500     1.2030     1.0250 h1         1 250       0.011200
     35 H92         -5.1300     2.0720     0.9220 h1         1 250       0.011200
     36 HO5         -6.4300     2.2950    -0.9970 ho         1 250       0.428000
@<TRIPOS>BOND
     1     1     2 1   
     2     2     3 1   
     3     2     4 1   
     4     2     5 1   
     5     5     6 1   
     6     5    18 1   
     7     5    19 1   
     8     6     7 1   
     9     6     8 1   
    10     6    20 1   
    11     7    21 1   
    12     8     9 1   
    13     8    22 1   
    14     8    23 1   
    15     9    10 1   
    16     9    14 1   
    17    10    11 1   
    18    10    24 1   
    19    10    25 1   
    20    11    12 1   
    21    11    26 1   
    22    11    27 1   
    23    12    13 1   
    24    12    15 1   
    25    13    14 1   
    26    13    28 1   
    27    13    29 1   
    28    14    30 1   
    29    14    31 1   
    30    15    16 1   
    31    15    32 1   
    32    15    33 1   
    33    16    17 1   
    34    16    34 1   
    35    16    35 1   
    36    17    36 1   
@<TRIPOS>SUBSTRUCTURE
     1 250         1 TEMP              0 ****  ****    0 ROOT
