@<TRIPOS>MOLECULE
250
   36    36     1     0     0
SMALL
No Charge or Current Charge


@<TRIPOS>ATOM
      1 O1           3.7140     1.5540    -0.8140 o          1 250      -0.693533
      2 S1           3.9100     0.1580    -1.2290 s6         1 250       1.326600
      3 O2           3.1660    -0.2350    -2.4330 o          1 250      -0.693533
      4 O3           5.3080    -0.2940    -1.2060 o          1 250      -0.693533
      5 C1           3.1450    -0.7960     0.0920 c3         1 250      -0.399400
      6 C2           1.7080    -0.3500     0.4060 c3         1 250       0.218300
      7 O4           1.2960    -1.0310     1.5890 oh         1 250      -0.642000
      8 C3           0.6440    -0.6830    -0.6830 c3         1 250       0.135800
      9 N1          -0.7510    -0.7460    -0.1560 n3         1 250      -0.706600
     10 C7          -1.2760     0.5830     0.2970 c6         1 250       0.166800
     11 C6          -2.7330     0.4890     0.8560 c6         1 250       0.163300
     12 N2          -3.6850    -0.1230    -0.1230 n3         1 250      -0.703600
     13 C5          -3.1550    -1.4430    -0.5840 c6         1 250       0.163300
     14 C4          -1.7000    -1.3420    -1.1440 c6         1 250       0.166800
     15 C8          -5.0850    -0.2220     0.3800 c3         1 250       0.171800
     16 C9          -5.7980     1.1200     0.7380 c3         1 250       0.164600
     17 O5          -5.9370     1.9760    -0.4100 oh         1 250      -0.639000
     18 H11          3.1770    -1.8470    -0.2110 h1         1 250       0.068200
     19 H12          3.7810    -0.6490     0.9710 h1         1 250       0.068200
     20 H2           1.6890     0.7350     0.5860 h1         1 250       0.079700
     21 HO4          0.3420    -1.2030     1.3980 ho         1 250       0.442000
     22 H31          0.7060     0.0580    -1.4900 h1         1 250       0.025200
     23 H32          0.9050    -1.6570    -1.1190 h1         1 250       0.025200
     24 H71         -0.6340     1.0080     1.0810 h1         1 250       0.036700
     25 H72         -1.2700     1.2940    -0.5420 h1         1 250       0.036700
     26 H61         -2.7140    -0.1030     1.7830 h1         1 250       0.031700
     27 H62         -3.0580     1.5030     1.1280 h1         1 250       0.031700
     28 H51         -3.1590    -2.1620     0.2490 h1         1 250       0.031700
     29 H52         -3.8040    -1.8580    -1.3690 h1         1 250       0.031700
     30 H41         -1.7190    -0.7370    -2.0620 h1         1 250       0.036700
     31 H42         -1.3660    -2.3500    -1.4300 h1         1 250       0.036700
     32 H81         -5.7050    -0.7310    -0.3710 h1         1 250       0.030200
     33 H82         -5.1030    -0.8560     1.2770 h1         1 250       0.030200
     34 H91         -6.7910     0.8850     1.1440 h1         1 250       0.011200
     35 H92         -5.2400     1.6340     1.5310 h1         1 250       0.011200
     36 HO5         -6.3450     2.8110    -0.0930 ho         1 250       0.428000
@<TRIPOS>BOND
     1     1     2 1   
     2     2     3 1   
     3     2     4 1   
     4     2     5 1   
     5     5     6 1   
     6     5    18 1   
     7     5    19 1   
     8     6     7 1   
     9     6     8 1   
    10     6    20 1   
    11     7    21 1   
    12     8     9 1   
    13     8    22 1   
    14     8    23 1   
    15     9    10 1   
    16     9    14 1   
    17    10    11 1   
    18    10    24 1   
    19    10    25 1   
    20    11    12 1   
    21    11    26 1   
    22    11    27 1   
    23    12    13 1   
    24    12    15 1   
    25    13    14 1   
    26    13    28 1   
    27    13    29 1   
    28    14    30 1   
    29    14    31 1   
    30    15    16 1   
    31    15    32 1   
    32    15    33 1   
    33    16    17 1   
    34    16    34 1   
    35    16    35 1   
    36    17    36 1   
@<TRIPOS>SUBSTRUCTURE
     1 250         1 TEMP              0 ****  ****    0 ROOT
