@<TRIPOS>MOLECULE
251
   42    44     1     0     0
SMALL
No Charge or Current Charge


@<TRIPOS>ATOM
      1 C1           4.7760     2.0030     0.7240 ca         1 251      -0.115250
      2 C2           3.4120     2.2820     0.5210 ca         1 251      -0.098250
      3 C3           2.5490     1.3010    -0.0100 ca         1 251      -0.026000
      4 C4           3.0800     0.0400    -0.3490 ca         1 251      -0.098250
      5 C5           4.4430    -0.2400    -0.1480 ca         1 251      -0.115250
      6 C6           5.2910     0.7410     0.3910 ca         1 251      -0.106500
      7 C12          1.1300     1.6100    -0.2100 cc         1 251      -0.112000
      8 C13          0.7110     2.8090    -0.7240 cd         1 251      -0.157500
      9 C14         -0.6980     2.8120    -0.7470 cd         1 251      -0.157500
     10 C15         -1.1380     1.6140    -0.2470 cc         1 251      -0.112000
     11 N16         -0.0100     0.8440     0.0750 na         1 251       0.050000
     12 C17         -2.5640     1.3110    -0.0920 ca         1 251      -0.026000
     13 C18         -3.4390     2.2930     0.4170 ca         1 251      -0.098250
     14 C19         -4.8080     2.0190     0.5770 ca         1 251      -0.115250
     15 C20         -5.3190     0.7610     0.2220 ca         1 251      -0.106500
     16 C21         -4.4600    -0.2210    -0.2960 ca         1 251      -0.115250
     17 C22         -3.0900     0.0540    -0.4540 ca         1 251      -0.098250
     18 C28         -0.0240    -0.4480     0.7880 c3         1 251      -0.025400
     19 C29         -0.0260    -1.6860    -0.1180 c          1 251       0.597100
     20 N32         -0.0560    -2.8740     0.5690 ns         1 251      -0.451400
     21 O33          0.0130    -1.6220    -1.3400 o          1 251      -0.507100
     22 C34         -0.1370    -4.1300     0.0580 c2         1 251       0.655800
     23 N35         -0.8450    -4.4880    -0.9140 n2         1 251      -0.814100
     24 N36          0.4090    -4.9750     0.9370 nv         1 251      -1.084200
     25 H1           5.4300     2.7660     1.1400 ha         1 251       0.114000
     26 H2           3.0240     3.2620     0.7910 ha         1 251       0.125750
     27 H4           2.4470    -0.7210    -0.7910 ha         1 251       0.125750
     28 H5           4.8430    -1.2160    -0.4160 ha         1 251       0.114000
     29 H6           6.3460     0.5240     0.5470 ha         1 251       0.112000
     30 H13          1.3520     3.6230    -1.0510 ha         1 251       0.135500
     31 H14         -1.3250     3.6270    -1.0940 ha         1 251       0.135500
     32 H18         -3.0540     3.2690     0.7040 ha         1 251       0.125750
     33 H19         -5.4720     2.7830     0.9760 ha         1 251       0.114000
     34 H20         -6.3800     0.5480     0.3440 ha         1 251       0.112000
     35 H21         -4.8550    -1.1940    -0.5820 ha         1 251       0.114000
     36 H22         -2.4470    -0.7080    -0.8810 ha         1 251       0.125750
     37 H281         0.8540    -0.5040     1.4400 h1         1 251       0.079200
     38 H282        -0.9160    -0.4920     1.4240 h1         1 251       0.079200
     39 HN32        -0.0440    -2.8140     1.5750 hn         1 251       0.318500
     40 HN35        -0.8210    -5.5120    -0.9750 hn         1 251       0.385400
     41 H361         1.2430    -4.6150     1.3880 hn         1 251       0.460500
     42 H362         0.5080    -5.9300     0.6080 hn         1 251       0.460500
@<TRIPOS>BOND
     1     1     2 ar  
     2     1     6 ar  
     3     1    25 1   
     4     2     3 ar  
     5     2    26 1   
     6     3     4 ar  
     7     3     7 1   
     8     4     5 ar  
     9     4    27 1   
    10     5     6 ar  
    11     5    28 1   
    12     6    29 1   
    13     7     8 2   
    14     7    11 1   
    15     8     9 1   
    16     8    30 1   
    17     9    10 2   
    18     9    31 1   
    19    10    11 1   
    20    10    12 1   
    21    11    18 1   
    22    12    13 ar  
    23    12    17 ar  
    24    13    14 ar  
    25    13    32 1   
    26    14    15 ar  
    27    14    33 1   
    28    15    16 ar  
    29    15    34 1   
    30    16    17 ar  
    31    16    35 1   
    32    17    36 1   
    33    18    19 1   
    34    18    37 1   
    35    18    38 1   
    36    19    20 1   
    37    19    21 2   
    38    20    22 1   
    39    20    39 1   
    40    22    23 2   
    41    22    24 1   
    42    23    40 1   
    43    24    41 1   
    44    24    42 1   
@<TRIPOS>SUBSTRUCTURE
     1 251         1 TEMP              0 ****  ****    0 ROOT
