@<TRIPOS>MOLECULE
251
   42    44     1     0     0
SMALL
abcg2


@<TRIPOS>ATOM
      1 C1           4.6890     1.8150     0.8620 ca         1 251      -0.115250
      2 C2           3.3690     2.1610     0.6140 ca         1 251      -0.098250
      3 C3           2.5230     1.3000    -0.0910 ca         1 251      -0.026000
      4 C4           3.0400     0.0850    -0.5470 ca         1 251      -0.098250
      5 C5           4.3570    -0.2650    -0.2880 ca         1 251      -0.115250
      6 C6           5.1870     0.5970     0.4180 ca         1 251      -0.106500
      7 C12          1.1450     1.7240    -0.3620 cc         1 251      -0.112000
      8 C13          0.7190     2.9210    -0.8890 cd         1 251      -0.157500
      9 C14         -0.6920     2.9040    -0.9030 cd         1 251      -0.157500
     10 C15         -1.0970     1.6970    -0.3850 cc         1 251      -0.112000
     11 N16          0.0290     0.9780    -0.0630 na         1 251       0.050000
     12 C17         -2.4660     1.2310    -0.1340 ca         1 251      -0.026000
     13 C18         -3.3270     2.0280     0.6230 ca         1 251      -0.098250
     14 C19         -4.6360     1.6340     0.8590 ca         1 251      -0.115250
     15 C20         -5.1060     0.4310     0.3490 ca         1 251      -0.106500
     16 C21         -4.2600    -0.3680    -0.4090 ca         1 251      -0.115250
     17 C22         -2.9540     0.0300    -0.6550 ca         1 251      -0.098250
     18 C28          0.0260    -0.2390     0.6980 c3         1 251      -0.025400
     19 C29         -0.0140    -1.4970    -0.1670 c          1 251       0.597100
     20 N32         -0.1810    -2.6160     0.5880 ns         1 251      -0.451400
     21 O33          0.1110    -1.4640    -1.3690 o          1 251      -0.507100
     22 C34         -0.2300    -3.9490     0.1600 c2         1 251       0.655800
     23 N35         -0.4190    -4.2440    -1.0600 n2         1 251      -0.814100
     24 N36         -0.1280    -4.8090     1.2220 nv         1 251      -1.084200
     25 H1           5.3260     2.4940     1.4130 ha         1 251       0.114000
     26 H2           2.9820     3.1030     0.9810 ha         1 251       0.125750
     27 H4           2.4230    -0.5800    -1.1360 ha         1 251       0.125750
     28 H5           4.7390    -1.2100    -0.6520 ha         1 251       0.114000
     29 H6           6.2150     0.3240     0.6160 ha         1 251       0.112000
     30 H13          1.3640     3.7080    -1.2470 ha         1 251       0.135500
     31 H14         -1.3480     3.6760    -1.2730 ha         1 251       0.135500
     32 H18         -2.9620     2.9590     1.0390 ha         1 251       0.125750
     33 H19         -5.2870     2.2640     1.4520 ha         1 251       0.114000
     34 H20         -6.1250     0.1210     0.5380 ha         1 251       0.112000
     35 H21         -4.6210    -1.3000    -0.8240 ha         1 251       0.114000
     36 H22         -2.3250    -0.5830    -1.2860 ha         1 251       0.125750
     37 H281         0.9200    -0.2750     1.3250 h1         1 251       0.079200
     38 H282        -0.8270    -0.2360     1.3800 h1         1 251       0.079200
     39 HN32        -0.2730    -2.4730     1.5830 hn         1 251       0.318500
     40 HN35        -0.3870    -5.2500    -1.1840 hn         1 251       0.385400
     41 H361         0.4600    -4.5350     1.9950 hn         1 251       0.460500
     42 H362        -0.0240    -5.7830     0.9860 hn         1 251       0.460500
@<TRIPOS>BOND
     1     1     2 ar  
     2     1     6 ar  
     3     1    25 1   
     4     2     3 ar  
     5     2    26 1   
     6     3     4 ar  
     7     3     7 1   
     8     4     5 ar  
     9     4    27 1   
    10     5     6 ar  
    11     5    28 1   
    12     6    29 1   
    13     7     8 2   
    14     7    11 1   
    15     8     9 1   
    16     8    30 1   
    17     9    10 2   
    18     9    31 1   
    19    10    11 1   
    20    10    12 1   
    21    11    18 1   
    22    12    13 ar  
    23    12    17 ar  
    24    13    14 ar  
    25    13    32 1   
    26    14    15 ar  
    27    14    33 1   
    28    15    16 ar  
    29    15    34 1   
    30    16    17 ar  
    31    16    35 1   
    32    17    36 1   
    33    18    19 1   
    34    18    37 1   
    35    18    38 1   
    36    19    20 1   
    37    19    21 2   
    38    20    22 1   
    39    20    39 1   
    40    22    23 2   
    41    22    24 1   
    42    23    40 1   
    43    24    41 1   
    44    24    42 1   
@<TRIPOS>SUBSTRUCTURE
     1 251         1 TEMP              0 ****  ****    0 ROOT
