@<TRIPOS>MOLECULE
252
   36    35     1     0     0
SMALL
bcc


@<TRIPOS>ATOM
      1 CAA          8.1050     0.0590    -0.7370 c3         1 252      -0.083100
      2 CAI          6.9670     0.0610     0.2750 c3         1 252      -0.077400
      3 CAJ          5.5930     0.0070    -0.3810 c3         1 252      -0.078400
      4 CAK          4.4420     0.0150     0.6180 c3         1 252      -0.074400
      5 CAL          3.0700    -0.0510    -0.0410 c3         1 252      -0.079400
      6 CAM          1.9110    -0.0200     0.9480 c3         1 252      -0.055400
      7 CAN          0.5460    -0.0930     0.2720 c3         1 252      -0.092400
      8 CAO         -0.6020    -0.0250     1.2680 c3         1 252       0.021600
      9 CAP         -2.0420    -0.0040     0.7310 c3         1 252      -0.162600
     10 P1P         -2.4720     1.6870     0.0090 p5         1 252       1.202700
     11 OAE         -3.5670     1.5580    -1.0520 o          1 252      -0.967000
     12 OAF         -3.0090     2.3680     1.3140 o          1 252      -0.967000
     13 OAB         -1.2070     2.3810    -0.5160 o          1 252      -0.967000
     14 P1R         -2.3870    -1.4780    -0.3600 p5         1 252       1.202700
     15 OAG         -1.7540    -2.6790     0.3800 o          1 252      -0.967000
     16 OAH         -3.9110    -1.6290    -0.4760 o          1 252      -0.967000
     17 OAC         -1.6980    -1.1950    -1.7070 o          1 252      -0.967000
     18 OAD         -2.8960    -0.1060     1.8900 oh         1 252      -0.676800
     19 HAA1         9.0800     0.0930    -0.2480 hc         1 252       0.013367
     20 HAA2         8.0780    -0.8390    -1.3570 hc         1 252       0.013367
     21 HAA3         8.0390     0.9210    -1.4030 hc         1 252       0.013367
     22 HAI1         7.0770    -0.7900     0.9540 hc         1 252       0.025700
     23 HAI2         7.0340     0.9570     0.9020 hc         1 252       0.025700
     24 HAJ1         5.4840     0.8570    -1.0650 hc         1 252       0.033200
     25 HAJ2         5.5250    -0.8910    -1.0060 hc         1 252       0.033200
     26 HAK1         4.5550    -0.8310     1.3070 hc         1 252       0.016700
     27 HAK2         4.5060     0.9170     1.2370 hc         1 252       0.016700
     28 HAL1         2.9650     0.7850    -0.7430 hc         1 252       0.038200
     29 HAL2         3.0040    -0.9600    -0.6490 hc         1 252       0.038200
     30 HAM1         2.0200    -0.8490     1.6570 hc         1 252      -0.004300
     31 HAM2         1.9780     0.8960     1.5490 hc         1 252      -0.004300
     32 HAN1         0.4390     0.7280    -0.4360 hc         1 252       0.088200
     33 HAN2         0.4750    -1.0170    -0.3030 hc         1 252       0.088200
     34 HAO1        -0.5210    -0.8890     1.9380 hc         1 252      -0.038300
     35 HAO2        -0.4560     0.8610     1.9040 hc         1 252      -0.038300
     36 HOAD        -3.1030     0.8500     2.0380 ho         1 252       0.396000
@<TRIPOS>BOND
     1     1     2 1   
     2     1    19 1   
     3     1    20 1   
     4     1    21 1   
     5     2     3 1   
     6     2    22 1   
     7     2    23 1   
     8     3     4 1   
     9     3    24 1   
    10     3    25 1   
    11     4     5 1   
    12     4    26 1   
    13     4    27 1   
    14     5     6 1   
    15     5    28 1   
    16     5    29 1   
    17     6     7 1   
    18     6    30 1   
    19     6    31 1   
    20     7     8 1   
    21     7    32 1   
    22     7    33 1   
    23     8     9 1   
    24     8    34 1   
    25     8    35 1   
    26     9    10 1   
    27     9    14 1   
    28     9    18 1   
    29    10    11 1   
    30    10    12 1   
    31    10    13 1   
    32    14    15 1   
    33    14    16 1   
    34    14    17 1   
    35    18    36 1   
@<TRIPOS>SUBSTRUCTURE
     1 252         1 TEMP              0 ****  ****    0 ROOT
