@<TRIPOS>MOLECULE
252
   36    35     1     0     0
SMALL
No Charge or Current Charge


@<TRIPOS>ATOM
      1 CAA          8.1980    -0.0060    -0.7380 c3         1 252      -0.083100
      2 CAI          7.0390     0.0820     0.2730 c3         1 252      -0.077400
      3 CAJ          5.6480    -0.0310    -0.3880 c3         1 252      -0.078400
      4 CAK          4.4870     0.0580     0.6270 c3         1 252      -0.074400
      5 CAL          3.0950    -0.0560    -0.0340 c3         1 252      -0.079400
      6 CAM          1.9330     0.0320     0.9810 c3         1 252      -0.055400
      7 CAN          0.5380    -0.0820     0.3230 c3         1 252      -0.092400
      8 CAO         -0.6260    -0.0040     1.3550 c3         1 252       0.021600
      9 CAP         -2.1210    -0.0450     0.8630 c3         1 252      -0.455000
     10 P1P         -2.6250     1.5480     0.0040 p5         1 252       1.360500
     11 OAE         -3.9160     1.4710    -0.7410 o          1 252      -0.967000
     12 OAF         -2.8380     2.5060     1.1330 o          1 252      -0.967000
     13 OAB         -1.5590     2.1330    -0.8620 o          1 252      -0.967000
     14 P1R         -2.4000    -1.2860    -0.5220 p5         1 252       1.360500
     15 OAG         -1.7440    -2.5640    -0.1020 o          1 252      -0.967000
     16 OAH         -3.8520    -1.6120    -0.6700 o          1 252      -0.967000
     17 OAC         -1.8240    -0.8840    -1.8390 o          1 252      -0.967000
     18 OAD         -2.9370    -0.2430     2.1030 oh         1 252      -0.739000
     19 HAA1         9.1610     0.0790    -0.2230 hc         1 252       0.013367
     20 HAA2         8.1760    -0.9650    -1.2690 hc         1 252       0.013367
     21 HAA3         8.1300     0.8020    -1.4770 hc         1 252       0.013367
     22 HAI1         7.1540    -0.7150     1.0180 hc         1 252       0.025700
     23 HAI2         7.1090     1.0360     0.8120 hc         1 252       0.025700
     24 HAJ1         5.5370     0.7670    -1.1320 hc         1 252       0.033200
     25 HAJ2         5.5830    -0.9850    -0.9270 hc         1 252       0.033200
     26 HAK1         4.5980    -0.7410     1.3720 hc         1 252       0.016700
     27 HAK2         4.5520     1.0110     1.1660 hc         1 252       0.016700
     28 HAL1         2.9840     0.7420    -0.7790 hc         1 252       0.038200
     29 HAL2         3.0300    -1.0100    -0.5730 hc         1 252       0.038200
     30 HAM1         2.0470    -0.7650     1.7260 hc         1 252      -0.004300
     31 HAM2         2.0000     0.9860     1.5190 hc         1 252      -0.004300
     32 HAN1         0.4430     0.7090    -0.4250 hc         1 252       0.088200
     33 HAN2         0.4930    -1.0340    -0.2160 hc         1 252       0.088200
     34 HAO1        -0.4720    -0.8370     2.0540 hc         1 252      -0.038300
     35 HAO2        -0.4860     0.9050     1.9540 hc         1 252      -0.038300
     36 HOAD        -3.2650     0.6580     2.3430 ho         1 252       0.435000
@<TRIPOS>BOND
     1     1     2 1   
     2     1    19 1   
     3     1    20 1   
     4     1    21 1   
     5     2     3 1   
     6     2    22 1   
     7     2    23 1   
     8     3     4 1   
     9     3    24 1   
    10     3    25 1   
    11     4     5 1   
    12     4    26 1   
    13     4    27 1   
    14     5     6 1   
    15     5    28 1   
    16     5    29 1   
    17     6     7 1   
    18     6    30 1   
    19     6    31 1   
    20     7     8 1   
    21     7    32 1   
    22     7    33 1   
    23     8     9 1   
    24     8    34 1   
    25     8    35 1   
    26     9    10 1   
    27     9    14 1   
    28     9    18 1   
    29    10    11 1   
    30    10    12 1   
    31    10    13 1   
    32    14    15 1   
    33    14    16 1   
    34    14    17 1   
    35    18    36 1   
@<TRIPOS>SUBSTRUCTURE
     1 252         1 TEMP              0 ****  ****    0 ROOT
