@<TRIPOS>MOLECULE
253
   43    46     1     0     0
SMALL
bcc


@<TRIPOS>ATOM
      1 C1           6.0440     0.4290    -0.1640 c3         1 253       0.119700
      2 O2           5.0530    -0.5740    -0.0360 os         1 253      -0.293900
      3 C3           3.7700    -0.1970    -0.0420 ca         1 253       0.141100
      4 C23          2.8270    -1.2440     0.1800 ca         1 253       0.120100
      5 O24          3.3680    -2.4490     0.4090 os         1 253      -0.295900
      6 C25          2.5000    -3.5410     0.6390 c3         1 253       0.120700
      7 C22          1.4850    -0.9700     0.1680 ca         1 253      -0.187000
      8 C21          0.9900     0.3370    -0.0640 ca         1 253      -0.133300
      9 C11         -0.4040     0.6830    -0.1080 ca         1 253       0.098000
     10 C12         -1.4980    -0.2420    -0.2200 ca         1 253      -0.222300
     11 C19         -2.8050     0.2480     0.0520 ca         1 253       0.511600
     12 N20         -3.0480     1.5660     0.2870 nb         1 253      -0.788000
     13 C17         -3.9160    -0.6240     0.0580 ca         1 253      -0.219600
     14 C18         -5.2910    -0.1360     0.4050 c3         1 253      -0.032800
     15 C15         -3.7400    -1.9600    -0.2970 ca         1 253       0.183600
     16 N16         -4.8030    -2.8250    -0.3460 nv         1 253      -0.831200
     17 C14         -2.4660    -2.4100    -0.7060 ca         1 253      -0.212000
     18 C13         -1.3850    -1.5740    -0.6630 ca         1 253      -0.057000
     19 C8          -0.7080     2.0470    -0.0110 ca         1 253      -0.334600
     20 C9          -2.0850     2.4360     0.1940 ca         1 253       0.722200
     21 N1          -2.4080     3.7390     0.3820 nv         1 253      -0.958500
     22 C7           0.3380     2.9950    -0.0970 ca         1 253       0.448200
     23 N6           1.5930     2.6930    -0.2300 nb         1 253      -0.671000
     24 C5           1.9350     1.3790    -0.1760 ca         1 253       0.416600
     25 C4           3.3170     1.0850    -0.1990 ca         1 253      -0.257300
     26 H11          5.9790     0.9440    -1.1250 h1         1 253       0.044367
     27 H12          5.9770     1.1660     0.6400 h1         1 253       0.044367
     28 H13A         7.0030    -0.0790    -0.1010 h1         1 253       0.044367
     29 H251         3.1320    -4.4130     0.7820 h1         1 253       0.042033
     30 H252         1.8910    -3.3960     1.5350 h1         1 253       0.042033
     31 H253         1.8390    -3.7200    -0.2130 h1         1 253       0.042033
     32 H22          0.7920    -1.7590     0.4080 ha         1 253       0.147000
     33 H181        -5.9950    -0.2990    -0.4150 hc         1 253       0.041700
     34 H182        -5.6940    -0.6600     1.2770 hc         1 253       0.041700
     35 H183        -5.2870     0.9250     0.6360 hc         1 253       0.041700
     36 H161        -5.5960    -2.6160     0.2380 hn         1 253       0.400800
     37 H162        -4.5790    -3.8060    -0.3530 hn         1 253       0.400800
     38 H14         -2.3490    -3.4240    -1.0670 ha         1 253       0.131000
     39 H13         -0.4460    -1.9500    -1.0390 ha         1 253       0.133000
     40 HN11        -3.3890     3.9610     0.3620 hn         1 253       0.425800
     41 HN12        -1.8040     4.4740     0.0610 hn         1 253       0.425800
     42 H7           0.1180     4.0570    -0.0780 h4         1 253       0.009100
     43 H4           3.9950     1.9190    -0.3140 ha         1 253       0.157000
@<TRIPOS>BOND
     1     1     2 1   
     2     1    26 1   
     3     1    27 1   
     4     1    28 1   
     5     2     3 1   
     6     3     4 ar  
     7     3    25 ar  
     8     4     5 1   
     9     4     7 ar  
    10     5     6 1   
    11     6    29 1   
    12     6    30 1   
    13     6    31 1   
    14     7     8 ar  
    15     7    32 1   
    16     8     9 ar  
    17     8    24 ar  
    18     9    10 ar  
    19     9    19 ar  
    20    10    11 ar  
    21    10    18 ar  
    22    11    12 ar  
    23    11    13 ar  
    24    12    20 ar  
    25    13    14 1   
    26    13    15 ar  
    27    14    33 1   
    28    14    34 1   
    29    14    35 1   
    30    15    16 1   
    31    15    17 ar  
    32    16    36 1   
    33    16    37 1   
    34    17    18 ar  
    35    17    38 1   
    36    18    39 1   
    37    19    20 ar  
    38    19    22 ar  
    39    20    21 1   
    40    21    40 1   
    41    21    41 1   
    42    22    23 ar  
    43    22    42 1   
    44    23    24 ar  
    45    24    25 ar  
    46    25    43 1   
@<TRIPOS>SUBSTRUCTURE
     1 253         1 TEMP              0 ****  ****    0 ROOT
