@<TRIPOS>MOLECULE
253
   43    46     1     0     0
SMALL
No Charge or Current Charge


@<TRIPOS>ATOM
      1 C1           6.1620     0.4620    -0.3250 c3         1 253       0.142900
      2 O2           5.1470    -0.5250    -0.0660 os         1 253      -0.317100
      3 C3           3.7970    -0.2150    -0.0270 ca         1 253       0.141100
      4 C23          2.8730    -1.2450     0.2400 ca         1 253       0.120100
      5 O24          3.3580    -2.5210     0.4800 os         1 253      -0.319100
      6 C25          2.4990    -3.6480     0.7300 c3         1 253       0.143900
      7 C22          1.4920    -0.9520     0.2760 ca         1 253      -0.169000
      8 C21          1.0060     0.3530    -0.0030 ca         1 253      -0.068000
      9 C11         -0.3880     0.6920    -0.0390 ca         1 253       0.098000
     10 C12         -1.5010    -0.2080    -0.1510 ca         1 253      -0.157000
     11 C19         -2.8200     0.2860     0.0910 ca         1 253       0.381000
     12 N20         -3.0460     1.6040     0.2940 nb         1 253      -0.788000
     13 C17         -3.9330    -0.6000     0.0740 ca         1 253      -0.154300
     14 C18         -5.3500    -0.0880     0.4040 c3         1 253      -0.032800
     15 C15         -3.7370    -1.9460    -0.2950 ca         1 253       0.322000
     16 N16         -4.7770    -2.8370    -0.3700 nv         1 253      -1.080000
     17 C14         -2.4710    -2.3950    -0.6610 ca         1 253      -0.194000
     18 C13         -1.3680    -1.5390    -0.6090 ca         1 253      -0.039000
     19 C8          -0.7030     2.0610     0.0440 ca         1 253      -0.204000
     20 C9          -2.0300     2.4330     0.2220 ca         1 253       0.656900
     21 N1          -2.4930     3.6780     0.3540 nv         1 253      -1.068900
     22 C7           0.3080     3.0200    -0.0460 ca         1 253       0.382900
     23 N6           1.6060     2.7000    -0.1890 nb         1 253      -0.671000
     24 C5           1.9600     1.4010    -0.1430 ca         1 253       0.286000
     25 C4           3.3300     1.1030    -0.1900 ca         1 253      -0.174000
     26 H11          6.0080     0.9330    -1.3040 h1         1 253       0.044367
     27 H12          6.1550     1.2410     0.4480 h1         1 253       0.044367
     28 H13A         7.1540    -0.0050    -0.3250 h1         1 253       0.044367
     29 H251         3.0960    -4.5580     0.8640 h1         1 253       0.042033
     30 H252         1.9080    -3.4940     1.6420 h1         1 253       0.042033
     31 H253         1.8140    -3.8110    -0.1120 h1         1 253       0.042033
     32 H22          0.8100    -1.7260     0.5990 ha         1 253       0.129000
     33 H181        -5.8650     0.2420    -0.5060 hc         1 253       0.041700
     34 H182        -5.9700    -0.8550     0.8800 hc         1 253       0.041700
     35 H183        -5.3390     0.7550     1.1040 hc         1 253       0.041700
     36 H161        -5.6950    -2.5770    -0.0170 hn         1 253       0.456000
     37 H162        -4.5910    -3.8260    -0.5260 hn         1 253       0.456000
     38 H14         -2.3350    -3.4150    -1.0110 ha         1 253       0.113000
     39 H13         -0.4350    -1.9200    -1.0070 ha         1 253       0.115000
     40 HN11        -3.5030     3.7210     0.3010 hn         1 253       0.481000
     41 HN12        -1.9970     4.4190    -0.1240 hn         1 253       0.481000
     42 H7           0.0890     4.0870    -0.0220 h4         1 253       0.009100
     43 H4           4.0250     1.9250    -0.3300 ha         1 253       0.139000
@<TRIPOS>BOND
     1     1     2 1   
     2     1    26 1   
     3     1    27 1   
     4     1    28 1   
     5     2     3 1   
     6     3     4 ar  
     7     3    25 ar  
     8     4     5 1   
     9     4     7 ar  
    10     5     6 1   
    11     6    29 1   
    12     6    30 1   
    13     6    31 1   
    14     7     8 ar  
    15     7    32 1   
    16     8     9 ar  
    17     8    24 ar  
    18     9    10 ar  
    19     9    19 ar  
    20    10    11 ar  
    21    10    18 ar  
    22    11    12 ar  
    23    11    13 ar  
    24    12    20 ar  
    25    13    14 1   
    26    13    15 ar  
    27    14    33 1   
    28    14    34 1   
    29    14    35 1   
    30    15    16 1   
    31    15    17 ar  
    32    16    36 1   
    33    16    37 1   
    34    17    18 ar  
    35    17    38 1   
    36    18    39 1   
    37    19    20 ar  
    38    19    22 ar  
    39    20    21 1   
    40    21    40 1   
    41    21    41 1   
    42    22    23 ar  
    43    22    42 1   
    44    23    24 ar  
    45    24    25 ar  
    46    25    43 1   
@<TRIPOS>SUBSTRUCTURE
     1 253         1 TEMP              0 ****  ****    0 ROOT
