@<TRIPOS>MOLECULE
254
   56    59     1     0     0
SMALL
No Charge or Current Charge


@<TRIPOS>ATOM
      1 C1           1.2550    -0.3520     7.1290 c          1 254       0.712600
      2 C2           0.8280    -0.3550     5.6700 ca         1 254      -0.124600
      3 C3           1.5540    -1.0940     4.7060 ca         1 254      -0.059000
      4 C4           1.1610    -1.0980     3.3570 ca         1 254      -0.151000
      5 C5           0.0350    -0.3640     2.9440 ca         1 254      -0.053000
      6 C10         -0.7010     0.3750     3.8920 ca         1 254      -0.037000
      7 C11         -0.3060     0.3780     5.2430 ca         1 254      -0.098000
      8 C15         -0.1760    -0.1200    -3.6760 ca         1 254      -0.076300
      9 C16         -0.5390    -0.7540    -5.0480 c6         1 254       0.003300
     10 C17          0.4580    -0.3380    -6.1630 c6         1 254      -0.066400
     11 C18          1.9180    -0.4200    -5.6890 c6         1 254      -0.066400
     12 C19          2.2010     0.5560    -4.5130 c6         1 254       0.001300
     13 C20          1.0900     0.4850    -3.4290 ca         1 254      -0.053300
     14 C23         -1.9610    -0.3130    -5.5230 c3         1 254      -0.081600
     15 C24         -0.5640    -2.3060    -4.8880 c3         1 254      -0.081600
     16 C25          3.6000     0.1870    -3.9220 c3         1 254      -0.080600
     17 C26          2.2960     2.0260    -5.0290 c3         1 254      -0.080600
     18 O1           0.6010     0.3000     7.9310 o          1 254      -0.716500
     19 O2           2.2400    -1.0020     7.4520 o          1 254      -0.716500
     20 C6          -0.3590    -0.3680     1.5940 ca         1 254      -0.068000
     21 C7          -1.4790     0.3790     1.1660 ca         1 254      -0.187900
     22 C8          -2.2250     1.0950     2.1300 ca         1 254      -0.107000
     23 C9          -1.8330     1.1000     3.4800 ca         1 254      -0.095000
     24 C13         -0.8640     0.3670    -1.3540 ca         1 254      -0.126900
     25 C14         -1.1240    -0.1790    -2.6280 ca         1 254      -0.081000
     26 C21          1.3210     1.0800    -2.1680 ca         1 254      -0.122000
     27 C22          0.3590     1.0310    -1.1500 ca         1 254      -0.078000
     28 C12         -1.9130     0.3350    -0.2760 ce         1 254       0.492500
     29 N1          -3.1770     0.3730    -0.6090 n2         1 254      -0.364700
     30 O3          -4.0120    -0.5560     0.0510 oh         1 254      -0.488000
     31 H3           2.4300    -1.6690     5.0010 ha         1 254       0.131000
     32 H4           1.7350    -1.6730     2.6340 ha         1 254       0.091000
     33 H11         -0.8840     0.9520     5.9640 ha         1 254       0.132000
     34 H171         0.2290     0.6820    -6.4960 hc         1 254       0.038200
     35 H172         0.3230    -0.9740    -7.0480 hc         1 254       0.038200
     36 H181         2.5900    -0.2010    -6.5320 hc         1 254       0.039200
     37 H182         2.1470    -1.4500    -5.3880 hc         1 254       0.039200
     38 H231        -2.7620    -0.7080    -4.8880 hc         1 254       0.033867
     39 H232        -2.0540     0.7790    -5.5300 hc         1 254       0.033867
     40 H233        -2.1670    -0.6670    -6.5410 hc         1 254       0.033867
     41 H241        -1.3350    -2.6260    -4.1760 hc         1 254       0.033867
     42 H242        -0.7740    -2.8060    -5.8410 hc         1 254       0.033867
     43 H243         0.3930    -2.6900    -4.5160 hc         1 254       0.033867
     44 H251         3.9600     0.9210    -3.1920 hc         1 254       0.033867
     45 H252         3.5730    -0.7890    -3.4230 hc         1 254       0.033867
     46 H253         4.3610     0.1300    -4.7100 hc         1 254       0.033867
     47 H261         2.5950     2.7140    -4.2290 hc         1 254       0.033867
     48 H262         3.0340     2.1230    -5.8350 hc         1 254       0.033867
     49 H263         1.3350     2.3840    -5.4140 hc         1 254       0.033867
     50 H6           0.2060    -0.9570     0.8740 ha         1 254       0.103000
     51 H8          -3.1050     1.6600     1.8330 ha         1 254       0.101000
     52 H9          -2.4140     1.6670     4.2040 ha         1 254       0.108000
     53 H14         -2.0740    -0.6760    -2.7960 ha         1 254       0.123000
     54 H21          2.2520     1.6000    -1.9640 ha         1 254       0.111000
     55 H22          0.5730     1.5160    -0.2000 ha         1 254       0.135000
     56 HO3         -4.9170    -0.3910    -0.3060 ho         1 254       0.452000
@<TRIPOS>BOND
     1     1     2 1   
     2     1    18 1   
     3     1    19 1   
     4     2     3 ar  
     5     2     7 ar  
     6     3     4 ar  
     7     3    31 1   
     8     4     5 ar  
     9     4    32 1   
    10     5     6 ar  
    11     5    20 ar  
    12     6     7 ar  
    13     6    23 ar  
    14     7    33 1   
    15     8     9 1   
    16     8    13 ar  
    17     8    25 ar  
    18     9    10 1   
    19     9    14 1   
    20     9    15 1   
    21    10    11 1   
    22    10    34 1   
    23    10    35 1   
    24    11    12 1   
    25    11    36 1   
    26    11    37 1   
    27    12    13 1   
    28    12    16 1   
    29    12    17 1   
    30    13    26 ar  
    31    14    38 1   
    32    14    39 1   
    33    14    40 1   
    34    15    41 1   
    35    15    42 1   
    36    15    43 1   
    37    16    44 1   
    38    16    45 1   
    39    16    46 1   
    40    17    47 1   
    41    17    48 1   
    42    17    49 1   
    43    20    21 ar  
    44    20    50 1   
    45    21    22 ar  
    46    21    28 1   
    47    22    23 ar  
    48    22    51 1   
    49    23    52 1   
    50    24    25 ar  
    51    24    27 ar  
    52    24    28 1   
    53    25    53 1   
    54    26    27 ar  
    55    26    54 1   
    56    27    55 1   
    57    28    29 2   
    58    29    30 1   
    59    30    56 1   
@<TRIPOS>SUBSTRUCTURE
     1 254         1 TEMP              0 ****  ****    0 ROOT
