@<TRIPOS>MOLECULE
254
   56    59     1     0     0
SMALL
abcg2


@<TRIPOS>ATOM
      1 C1           1.1960    -0.0730     7.1340 c          1 254       0.712600
      2 C2           0.7480    -0.2370     5.6860 ca         1 254      -0.124600
      3 C3           1.2790    -1.2770     4.8860 ca         1 254      -0.059000
      4 C4           0.8900    -1.4400     3.5860 ca         1 254      -0.151000
      5 C5          -0.0590    -0.5680     3.0020 ca         1 254      -0.053000
      6 C10         -0.5960     0.4780     3.7930 ca         1 254      -0.037000
      7 C11         -0.1720     0.6170     5.1330 ca         1 254      -0.098000
      8 C15         -0.1620    -0.1640    -3.7030 ca         1 254      -0.076300
      9 C16         -0.5390    -0.7170    -5.0730 c6         1 254       0.003300
     10 C17          0.4050    -0.1660    -6.1460 c6         1 254      -0.066400
     11 C18          1.8570    -0.2380    -5.7210 c6         1 254      -0.066400
     12 C19          2.1490     0.6440    -4.5030 c6         1 254       0.001300
     13 C20          1.0730     0.4520    -3.4420 ca         1 254      -0.053300
     14 C23         -1.9670    -0.3150    -5.4590 c3         1 254      -0.081600
     15 C24         -0.4530    -2.2490    -5.0320 c3         1 254      -0.081600
     16 C25          3.5310     0.2560    -3.9680 c3         1 254      -0.080600
     17 C26          2.1790     2.1220    -4.9210 c3         1 254      -0.080600
     18 O1           0.6820     0.8630     7.7750 o          1 254      -0.716500
     19 O2           2.0390    -0.8910     7.5490 o          1 254      -0.716500
     20 C6          -0.4790    -0.7030     1.6590 ca         1 254      -0.068000
     21 C7          -1.4020     0.1540     1.1180 ca         1 254      -0.187900
     22 C8          -1.9390     1.1970     1.9120 ca         1 254      -0.107000
     23 C9          -1.5410     1.3550     3.2090 ca         1 254      -0.095000
     24 C13         -0.8260     0.1550    -1.3710 ca         1 254      -0.126900
     25 C14         -1.0730    -0.3110    -2.6590 ca         1 254      -0.081000
     26 C21          1.3100     0.9300    -2.1510 ca         1 254      -0.122000
     27 C22          0.3900     0.7920    -1.1300 ca         1 254      -0.078000
     28 C12         -1.8270     0.0010    -0.2950 ce         1 254       0.492500
     29 N1          -3.0270    -0.2510    -0.6480 n2         1 254      -0.364700
     30 O3          -3.8820    -0.4310     0.3940 oh         1 254      -0.488000
     31 H3           2.0060    -1.9500     5.3210 ha         1 254       0.131000
     32 H4           1.3080    -2.2390     2.9840 ha         1 254       0.091000
     33 H11         -0.5890     1.4160     5.7340 ha         1 254       0.132000
     34 H171         0.1310     0.8710    -6.3650 hc         1 254       0.038200
     35 H172         0.2480    -0.7240    -7.0730 hc         1 254       0.038200
     36 H181         2.5130     0.0610    -6.5430 hc         1 254       0.039200
     37 H182         2.1190    -1.2740    -5.4860 hc         1 254       0.039200
     38 H231        -2.7240    -0.7850    -4.8310 hc         1 254       0.033867
     39 H232        -2.1020     0.7670    -5.4010 hc         1 254       0.033867
     40 H233        -2.1680    -0.6220    -6.4870 hc         1 254       0.033867
     41 H241        -1.1290    -2.6610    -4.2810 hc         1 254       0.033867
     42 H242        -0.7320    -2.6730    -6.0000 hc         1 254       0.033867
     43 H243         0.5530    -2.5990    -4.7930 hc         1 254       0.033867
     44 H251         3.8700     0.9010    -3.1570 hc         1 254       0.033867
     45 H252         3.5390    -0.7730    -3.6050 hc         1 254       0.033867
     46 H253         4.2690     0.3330    -4.7690 hc         1 254       0.033867
     47 H261         2.4170     2.7700    -4.0760 hc         1 254       0.033867
     48 H262         2.9420     2.2840    -5.6860 hc         1 254       0.033867
     49 H263         1.2220     2.4520    -5.3270 hc         1 254       0.033867
     50 H6          -0.0550    -1.4990     1.0570 ha         1 254       0.103000
     51 H8          -2.6580     1.8800     1.4800 ha         1 254       0.101000
     52 H9          -1.9520     2.1590     3.8080 ha         1 254       0.108000
     53 H14         -2.0130    -0.8130    -2.8480 ha         1 254       0.123000
     54 H21          2.2460     1.4250    -1.9260 ha         1 254       0.111000
     55 H22          0.6250     1.1830    -0.1490 ha         1 254       0.135000
     56 HO3         -4.7350    -0.5760    -0.0290 ho         1 254       0.452000
@<TRIPOS>BOND
     1     1     2 1   
     2     1    18 1   
     3     1    19 1   
     4     2     3 ar  
     5     2     7 ar  
     6     3     4 ar  
     7     3    31 1   
     8     4     5 ar  
     9     4    32 1   
    10     5     6 ar  
    11     5    20 ar  
    12     6     7 ar  
    13     6    23 ar  
    14     7    33 1   
    15     8     9 1   
    16     8    13 ar  
    17     8    25 ar  
    18     9    10 1   
    19     9    14 1   
    20     9    15 1   
    21    10    11 1   
    22    10    34 1   
    23    10    35 1   
    24    11    12 1   
    25    11    36 1   
    26    11    37 1   
    27    12    13 1   
    28    12    16 1   
    29    12    17 1   
    30    13    26 ar  
    31    14    38 1   
    32    14    39 1   
    33    14    40 1   
    34    15    41 1   
    35    15    42 1   
    36    15    43 1   
    37    16    44 1   
    38    16    45 1   
    39    16    46 1   
    40    17    47 1   
    41    17    48 1   
    42    17    49 1   
    43    20    21 ar  
    44    20    50 1   
    45    21    22 ar  
    46    21    28 1   
    47    22    23 ar  
    48    22    51 1   
    49    23    52 1   
    50    24    25 ar  
    51    24    27 ar  
    52    24    28 1   
    53    25    53 1   
    54    26    27 ar  
    55    26    54 1   
    56    27    55 1   
    57    28    29 2   
    58    29    30 1   
    59    30    56 1   
@<TRIPOS>SUBSTRUCTURE
     1 254         1 TEMP              0 ****  ****    0 ROOT
