@<TRIPOS>MOLECULE
255
   55    58     1     0     0
SMALL
No Charge or Current Charge


@<TRIPOS>ATOM
      1 O25          5.8820    -0.7810     1.7300 o          1 255      -0.548000
      2 S31          5.0730     0.2490     1.0750 sy         1 255       1.162600
      3 O26          5.0620     1.6310     1.5560 o          1 255      -0.548000
      4 N24          5.6450     0.2430    -0.5010 n7         1 255      -0.921300
      5 C30          5.3680     1.3030    -1.4920 c3         1 255       0.258200
      6 C01          3.8560     1.6170    -1.5970 c3         1 255      -0.108767
      7 C02          6.1870     2.5820    -1.1800 c3         1 255      -0.108767
      8 C03          5.8520     0.7210    -2.8390 c3         1 255      -0.108767
      9 C20          3.4050    -0.3930     0.8740 ca         1 255      -0.265500
     10 C13          3.2120    -1.6670     0.3100 ca         1 255      -0.010000
     11 C11          1.9110    -2.1720     0.1400 ca         1 255      -0.126000
     12 C17          0.7740    -1.4190     0.5270 cp         1 255       0.023000
     13 C10          0.9920    -0.1390     1.0960 ca         1 255      -0.126000
     14 C12          2.2900     0.3710     1.2700 ca         1 255      -0.010000
     15 C18         -0.6100    -1.9600     0.3420 cp         1 255      -0.113000
     16 C15         -0.8840    -3.3410     0.4720 ca         1 255       0.370900
     17 N22         -2.1140    -3.8820     0.3260 nb         1 255      -0.661000
     18 C28         -3.1540    -3.0710     0.0320 ca         1 255       0.292000
     19 C14         -4.4290    -3.6410    -0.1160 ca         1 255      -0.111000
     20 C06         -5.5420    -2.8490    -0.4270 ca         1 255      -0.072000
     21 C09         -5.3840    -1.4670    -0.5930 ca         1 255      -0.129000
     22 C27         -4.1220    -0.8620    -0.4400 ca         1 255       0.331000
     23 C29         -2.9960    -1.6690    -0.1320 ca         1 255      -0.114000
     24 C16         -1.7030    -1.1170     0.0340 ca         1 255      -0.045000
     25 N23         -3.9830     0.5180    -0.6490 nu         1 255      -0.958900
     26 C19         -4.7740     1.6130    -0.3800 ca         1 255       0.615900
     27 N21         -5.8140     1.3950     0.4310 nb         1 255      -0.728000
     28 C07         -6.5950     2.4530     0.7420 ca         1 255       0.382900
     29 C04         -6.3520     3.7510     0.2590 ca         1 255      -0.211000
     30 C05         -5.2520     3.9730    -0.5810 ca         1 255      -0.034000
     31 C08         -4.4440     2.8710    -0.9000 ca         1 255      -0.228000
     32 HN24         6.6470     0.2040    -0.3330 hn         1 255       0.493000
     33 H011         3.4820     2.1110    -0.6940 hc         1 255       0.047700
     34 H012         3.6630     2.2930    -2.4390 hc         1 255       0.047700
     35 H013         3.2740     0.7030    -1.7630 hc         1 255       0.047700
     36 H021         7.2420     2.3440    -0.9980 hc         1 255       0.047700
     37 H022         6.1440     3.2770    -2.0280 hc         1 255       0.047700
     38 H023         5.7990     3.1200    -0.3100 hc         1 255       0.047700
     39 H031         5.3110    -0.2020    -3.0830 hc         1 255       0.047700
     40 H032         5.6870     1.4330    -3.6560 hc         1 255       0.047700
     41 H033         6.9240     0.4880    -2.8080 hc         1 255       0.047700
     42 H13          4.0670    -2.2630    -0.0060 ha         1 255       0.135500
     43 H11          1.7880    -3.1520    -0.3120 ha         1 255       0.121000
     44 H10          0.1480     0.4620     1.4220 ha         1 255       0.121000
     45 H12          2.4220     1.3570     1.7120 ha         1 255       0.135500
     46 H15         -0.0880    -4.0420     0.7200 h4         1 255       0.023100
     47 H14         -4.5540    -4.7130     0.0090 ha         1 255       0.135000
     48 H06         -6.5220    -3.3050    -0.5470 ha         1 255       0.119000
     49 H09         -6.2470    -0.8650    -0.8580 ha         1 255       0.139000
     50 H16         -1.5320    -0.0510    -0.0780 ha         1 255       0.114000
     51 HN23        -3.0800     0.7900    -1.0230 hn         1 255       0.496000
     52 H07         -7.4400     2.2560     1.4000 h4         1 255       0.020100
     53 H04         -7.0120     4.5670     0.5410 ha         1 255       0.127000
     54 H05         -5.0310     4.9660    -0.9700 ha         1 255       0.118000
     55 H08         -3.5790     2.9930    -1.5440 ha         1 255       0.120000
@<TRIPOS>BOND
     1     1     2 2   
     2     2     3 2   
     3     2     4 1   
     4     2     9 1   
     5     4     5 1   
     6     4    32 1   
     7     5     6 1   
     8     5     7 1   
     9     5     8 1   
    10     6    33 1   
    11     6    34 1   
    12     6    35 1   
    13     7    36 1   
    14     7    37 1   
    15     7    38 1   
    16     8    39 1   
    17     8    40 1   
    18     8    41 1   
    19     9    10 ar  
    20     9    14 ar  
    21    10    11 ar  
    22    10    42 1   
    23    11    12 ar  
    24    11    43 1   
    25    12    13 ar  
    26    12    15 1   
    27    13    14 ar  
    28    13    44 1   
    29    14    45 1   
    30    15    16 ar  
    31    15    24 ar  
    32    16    17 ar  
    33    16    46 1   
    34    17    18 ar  
    35    18    19 ar  
    36    18    23 ar  
    37    19    20 ar  
    38    19    47 1   
    39    20    21 ar  
    40    20    48 1   
    41    21    22 ar  
    42    21    49 1   
    43    22    23 ar  
    44    22    25 1   
    45    23    24 ar  
    46    24    50 1   
    47    25    26 1   
    48    25    51 1   
    49    26    27 ar  
    50    26    31 ar  
    51    27    28 ar  
    52    28    29 ar  
    53    28    52 1   
    54    29    30 ar  
    55    29    53 1   
    56    30    31 ar  
    57    30    54 1   
    58    31    55 1   
@<TRIPOS>SUBSTRUCTURE
     1 255         1 TEMP              0 ****  ****    0 ROOT
