@<TRIPOS>MOLECULE
255
   55    58     1     0     0
SMALL
abcg2


@<TRIPOS>ATOM
      1 O25          5.6900    -0.7950     1.7460 o          1 255      -0.548000
      2 S31          4.9600     0.2330     1.0140 sy         1 255       1.162600
      3 O26          4.8660     1.5660     1.5970 o          1 255      -0.548000
      4 N24          5.6060     0.2290    -0.4910 n7         1 255      -0.921300
      5 C30          5.4860     1.3220    -1.4810 c3         1 255       0.258200
      6 C01          4.0310     1.7520    -1.6360 c3         1 255      -0.108767
      7 C02          6.3700     2.5120    -1.1070 c3         1 255      -0.108767
      8 C03          5.9700     0.7180    -2.7980 c3         1 255      -0.108767
      9 C20          3.3060    -0.3530     0.7640 ca         1 255      -0.265500
     10 C13          3.1200    -1.5700     0.1210 ca         1 255      -0.010000
     11 C11          1.8390    -2.0670    -0.0300 ca         1 255      -0.126000
     12 C17          0.7360    -1.3650     0.4630 cp         1 255       0.023000
     13 C10          0.9510    -0.1490     1.1120 ca         1 255      -0.126000
     14 C12          2.2300     0.3600     1.2650 ca         1 255      -0.010000
     15 C18         -0.6260    -1.8960     0.2960 cp         1 255      -0.113000
     16 C15         -0.8760    -3.2870     0.4010 ca         1 255       0.370900
     17 N22         -2.0570    -3.8260     0.3090 nb         1 255      -0.661000
     18 C28         -3.1280    -3.0300     0.0770 ca         1 255       0.292000
     19 C14         -4.4040    -3.6260     0.0210 ca         1 255      -0.111000
     20 C06         -5.5020    -2.8390    -0.2010 ca         1 255      -0.072000
     21 C09         -5.3860    -1.4540    -0.4030 ca         1 255      -0.129000
     22 C27         -4.1540    -0.8370    -0.3650 ca         1 255       0.331000
     23 C29         -2.9950    -1.6260    -0.0870 ca         1 255      -0.114000
     24 C16         -1.7030    -1.0810     0.0530 ca         1 255      -0.045000
     25 N23         -3.9720     0.5160    -0.6180 nu         1 255      -0.958900
     26 C19         -4.8280     1.5630    -0.3660 ca         1 255       0.615900
     27 N21         -5.9100     1.3510     0.3670 nb         1 255      -0.728000
     28 C07         -6.7120     2.3830     0.6210 ca         1 255       0.382900
     29 C04         -6.4820     3.6680     0.1720 ca         1 255      -0.211000
     30 C05         -5.3390     3.8850    -0.5960 ca         1 255      -0.034000
     31 C08         -4.4990     2.8300    -0.8760 ca         1 255      -0.228000
     32 HN24         6.5180    -0.2150    -0.4780 hn         1 255       0.493000
     33 H011         3.6260     2.2090    -0.7340 hc         1 255       0.047700
     34 H012         3.9630     2.4960    -2.4300 hc         1 255       0.047700
     35 H013         3.3960     0.9090    -1.9140 hc         1 255       0.047700
     36 H021         7.4080     2.1970    -0.9840 hc         1 255       0.047700
     37 H022         6.3420     3.2660    -1.8940 hc         1 255       0.047700
     38 H023         6.0450     2.9820    -0.1800 hc         1 255       0.047700
     39 H031         5.3500    -0.1290    -3.0930 hc         1 255       0.047700
     40 H032         5.9290     1.4660    -3.5890 hc         1 255       0.047700
     41 H033         7.0040     0.3740    -2.7220 hc         1 255       0.047700
     42 H13          3.9600    -2.1180    -0.2860 ha         1 255       0.135500
     43 H11          1.6990    -3.0020    -0.5580 ha         1 255       0.121000
     44 H10          0.1160     0.4020     1.5250 ha         1 255       0.121000
     45 H12          2.3750     1.3030     1.7740 ha         1 255       0.135500
     46 H15         -0.0510    -3.9640     0.6000 h4         1 255       0.023100
     47 H14         -4.4900    -4.6950     0.1570 ha         1 255       0.135000
     48 H06         -6.4860    -3.2860    -0.2440 ha         1 255       0.119000
     49 H09         -6.2750    -0.8780    -0.6070 ha         1 255       0.139000
     50 H16         -1.5490    -0.0130    -0.0270 ha         1 255       0.114000
     51 HN23        -3.1270     0.7690    -1.1030 hn         1 255       0.496000
     52 H07         -7.5870     2.1630     1.2230 h4         1 255       0.020100
     53 H04         -7.1670     4.4690     0.4100 ha         1 255       0.127000
     54 H05         -5.1090     4.8720    -0.9760 ha         1 255       0.118000
     55 H08         -3.6070     2.9700    -1.4730 ha         1 255       0.120000
@<TRIPOS>BOND
     1     1     2 2   
     2     2     3 2   
     3     2     4 1   
     4     2     9 1   
     5     4     5 1   
     6     4    32 1   
     7     5     6 1   
     8     5     7 1   
     9     5     8 1   
    10     6    33 1   
    11     6    34 1   
    12     6    35 1   
    13     7    36 1   
    14     7    37 1   
    15     7    38 1   
    16     8    39 1   
    17     8    40 1   
    18     8    41 1   
    19     9    10 ar  
    20     9    14 ar  
    21    10    11 ar  
    22    10    42 1   
    23    11    12 ar  
    24    11    43 1   
    25    12    13 ar  
    26    12    15 1   
    27    13    14 ar  
    28    13    44 1   
    29    14    45 1   
    30    15    16 ar  
    31    15    24 ar  
    32    16    17 ar  
    33    16    46 1   
    34    17    18 ar  
    35    18    19 ar  
    36    18    23 ar  
    37    19    20 ar  
    38    19    47 1   
    39    20    21 ar  
    40    20    48 1   
    41    21    22 ar  
    42    21    49 1   
    43    22    23 ar  
    44    22    25 1   
    45    23    24 ar  
    46    24    50 1   
    47    25    26 1   
    48    25    51 1   
    49    26    27 ar  
    50    26    31 ar  
    51    27    28 ar  
    52    28    29 ar  
    53    28    52 1   
    54    29    30 ar  
    55    29    53 1   
    56    30    31 ar  
    57    30    54 1   
    58    31    55 1   
@<TRIPOS>SUBSTRUCTURE
     1 255         1 TEMP              0 ****  ****    0 ROOT
