@<TRIPOS>MOLECULE
256
   20    20     1     0     0
SMALL
abcg2


@<TRIPOS>ATOM
      1 C1          -3.7150     0.2730     0.2050 ca         1 256      -0.175000
      2 C2          -3.2090     0.3510    -1.0850 ca         1 256      -0.138500
      3 C3          -1.8610     0.1120    -1.3180 ca         1 256      -0.099500
      4 C4          -0.9960    -0.2150    -0.2760 ca         1 256       0.049700
      5 C5          -1.5140    -0.2830     1.0180 ca         1 256      -0.099500
      6 C6          -2.8610    -0.0460     1.2540 ca         1 256      -0.138500
      7 C7           0.4550    -0.4540    -0.5690 c3         1 256      -0.416400
      8 C8           1.0490    -1.7050     0.1240 c          1 256       0.766000
      9 O9           1.2320    -2.6860    -0.6210 o          1 256      -0.739000
     10 S10          1.4120     1.0440    -0.1880 s6         1 256       1.341600
     11 O12          1.1190     1.4380     1.2010 o          1 256      -0.714867
     12 O13          1.2730    -1.6380     1.3450 o          1 256      -0.739000
     13 O14          2.8230     0.6560    -0.4040 o          1 256      -0.714867
     14 O15          0.9420     2.0460    -1.1690 o          1 256      -0.714867
     15 H1          -4.7660     0.4570     0.3930 ha         1 256       0.062000
     16 H2          -3.8620     0.5990    -1.9120 ha         1 256       0.070500
     17 H3          -1.4750     0.1750    -2.3290 ha         1 256       0.130500
     18 H5          -0.8580    -0.5300     1.8400 ha         1 256       0.130500
     19 H6          -3.2450    -0.1070     2.2640 ha         1 256       0.070500
     20 H7           0.5750    -0.5710    -1.6490 h1         1 256       0.070700
@<TRIPOS>BOND
     1     1     2 ar  
     2     1     6 ar  
     3     1    15 1   
     4     2     3 ar  
     5     2    16 1   
     6     3     4 ar  
     7     3    17 1   
     8     4     5 ar  
     9     4     7 1   
    10     5     6 ar  
    11     5    18 1   
    12     6    19 1   
    13     7     8 1   
    14     7    10 1   
    15     7    20 1   
    16     8     9 1   
    17     8    12 1   
    18    10    11 1   
    19    10    13 1   
    20    10    14 1   
@<TRIPOS>SUBSTRUCTURE
     1 256         1 TEMP              0 ****  ****    0 ROOT
