@<TRIPOS>MOLECULE
256
   20    20     1     0     0
SMALL
No Charge or Current Charge


@<TRIPOS>ATOM
      1 C1          -3.7780     0.2360     0.1990 ca         1 256      -0.175000
      2 C2          -3.2910     0.1250    -1.1120 ca         1 256      -0.138500
      3 C3          -1.9150    -0.0620    -1.3380 ca         1 256      -0.099500
      4 C4          -1.0100    -0.1380    -0.2580 ca         1 256       0.049700
      5 C5          -1.5150    -0.0260     1.0560 ca         1 256      -0.099500
      6 C6          -2.8900     0.1600     1.2830 ca         1 256      -0.138500
      7 C7           0.4800    -0.3450    -0.5520 c3         1 256      -0.416400
      8 C8           1.0520    -1.6410    -0.0470 c          1 256       0.766000
      9 O9           1.4980    -2.4100    -0.8860 o          1 256      -0.739000
     10 S10          1.5570     0.9850    -0.0600 s6         1 256       1.341600
     11 O12          1.4430     1.0700     1.4030 o          1 256      -0.714867
     12 O13          0.8740    -1.9720     1.1150 o          1 256      -0.739000
     13 O14          2.8840     0.5710    -0.5400 o          1 256      -0.714867
     14 O15          1.0050     2.1480    -0.7710 o          1 256      -0.714867
     15 H1          -4.8420     0.3800     0.3750 ha         1 256       0.062000
     16 H2          -3.9760     0.1820    -1.9540 ha         1 256       0.070500
     17 H3          -1.5520    -0.1470    -2.3590 ha         1 256       0.130500
     18 H5          -0.8440    -0.0880     1.9090 ha         1 256       0.130500
     19 H6          -3.2660     0.2440     2.3000 ha         1 256       0.070500
     20 H7           0.6040    -0.3580    -1.6380 h1         1 256       0.070700
@<TRIPOS>BOND
     1     1     2 ar  
     2     1     6 ar  
     3     1    15 1   
     4     2     3 ar  
     5     2    16 1   
     6     3     4 ar  
     7     3    17 1   
     8     4     5 ar  
     9     4     7 1   
    10     5     6 ar  
    11     5    18 1   
    12     6    19 1   
    13     7     8 1   
    14     7    10 1   
    15     7    20 1   
    16     8     9 1   
    17     8    12 1   
    18    10    11 1   
    19    10    13 1   
    20    10    14 1   
@<TRIPOS>SUBSTRUCTURE
     1 256         1 TEMP              0 ****  ****    0 ROOT
