@<TRIPOS>MOLECULE
258
   19    19     1     0     0
SMALL
No Charge or Current Charge


@<TRIPOS>ATOM
      1 CAE         -1.7040    -1.2070     0.3160 ca         1 258      -0.169500
      2 CAC         -3.0880    -1.1850     0.0730 ca         1 258      -0.074000
      3 CAB         -3.7140     0.0160    -0.3030 ca         1 258      -0.146000
      4 CAD         -2.9570     1.1920    -0.4350 ca         1 258      -0.074000
      5 CAF         -1.5710     1.1710    -0.1910 ca         1 258      -0.169500
      6 CAJ         -0.9400    -0.0360     0.1860 ca         1 258       0.141100
      7 OAI          0.4140    -0.1190     0.4380 os         1 258      -0.339100
      8 CAH          1.2880     1.0210     0.3300 c3         1 258       0.155600
      9 CAG          2.7230     0.5720     0.6720 c3         1 258       0.121600
     10 ClAA         3.3670    -0.6490    -0.5200 cl         1 258      -0.267000
     11 HAE         -1.2200    -2.1360     0.6060 ha         1 258       0.121000
     12 HAC         -3.6750    -2.0960     0.1750 ha         1 258       0.112000
     13 HAB         -4.7850     0.0350    -0.4910 ha         1 258       0.115000
     14 HAD         -3.4430     2.1210    -0.7250 ha         1 258       0.112000
     15 HAF         -1.0090     2.0930    -0.3000 ha         1 258       0.121000
     16 HAH1         1.2710     1.4340    -0.6870 h1         1 258       0.045200
     17 HAH2         0.9830     1.8090     1.0310 h1         1 258       0.045200
     18 HAG1         3.3980     1.4370     0.6560 h1         1 258       0.074700
     19 HAG2         2.7510     0.1190     1.6710 h1         1 258       0.074700
@<TRIPOS>BOND
     1     1     2 ar  
     2     1     6 ar  
     3     1    11 1   
     4     2     3 ar  
     5     2    12 1   
     6     3     4 ar  
     7     3    13 1   
     8     4     5 ar  
     9     4    14 1   
    10     5     6 ar  
    11     5    15 1   
    12     6     7 1   
    13     7     8 1   
    14     8     9 1   
    15     8    16 1   
    16     8    17 1   
    17     9    10 1   
    18     9    18 1   
    19     9    19 1   
@<TRIPOS>SUBSTRUCTURE
     1 258         1 TEMP              0 ****  ****    0 ROOT
