@<TRIPOS>MOLECULE
258
   19    19     1     0     0
SMALL
bcc


@<TRIPOS>ATOM
      1 CAE         -1.6750    -1.1910     0.3160 ca         1 258      -0.187500
      2 CAC         -3.0350    -1.1590     0.0620 ca         1 258      -0.092000
      3 CAB         -3.6590     0.0280    -0.3100 ca         1 258      -0.164000
      4 CAD         -2.9000     1.1810    -0.4210 ca         1 258      -0.092000
      5 CAF         -1.5310     1.1670    -0.1690 ca         1 258      -0.187500
      6 CAJ         -0.9150    -0.0250     0.2020 ca         1 258       0.141100
      7 OAI          0.4020    -0.1480     0.4730 os         1 258      -0.315900
      8 CAH          1.2330     0.9820     0.3290 c3         1 258       0.132400
      9 CAG          2.6430     0.5780     0.6570 c3         1 258       0.045000
     10 CLAA         3.2520    -0.6540    -0.4990 cl         1 258      -0.190400
     11 HAE         -1.1910    -2.1150     0.6050 ha         1 258       0.139000
     12 HAC         -3.6130    -2.0700     0.1540 ha         1 258       0.130000
     13 HAB         -4.7230     0.0500    -0.5050 ha         1 258       0.133000
     14 HAD         -3.3680     2.1140    -0.7090 ha         1 258       0.130000
     15 HAF         -0.9710     2.0870    -0.2650 ha         1 258       0.139000
     16 HAH1         1.1800     1.3890    -0.6870 h1         1 258       0.045200
     17 HAH2         0.9440     1.7790     1.0240 h1         1 258       0.045200
     18 HAG1         3.2970     1.4440     0.5880 h1         1 258       0.074700
     19 HAG2         2.7190     0.1540     1.6560 h1         1 258       0.074700
@<TRIPOS>BOND
     1     1     2 ar  
     2     1     6 ar  
     3     1    11 1   
     4     2     3 ar  
     5     2    12 1   
     6     3     4 ar  
     7     3    13 1   
     8     4     5 ar  
     9     4    14 1   
    10     5     6 ar  
    11     5    15 1   
    12     6     7 1   
    13     7     8 1   
    14     8     9 1   
    15     8    16 1   
    16     8    17 1   
    17     9    10 1   
    18     9    18 1   
    19     9    19 1   
@<TRIPOS>SUBSTRUCTURE
     1 258         1 TEMP              0 ****  ****    0 ROOT
