@<TRIPOS>MOLECULE
259
   18    18     1     0     0
SMALL
No Charge or Current Charge


@<TRIPOS>ATOM
      1 CAA          3.8040     1.1940    -0.0180 c3         1 259       0.011900
      2 SAH          3.0730    -0.5020    -0.0350 ss         1 259      -0.116000
      3 CAI          1.2900    -0.2690    -0.0220 ca         1 259      -0.058000
      4 CAD          0.4750    -1.4140    -0.0320 ca         1 259      -0.130500
      5 CAF         -0.9260    -1.2990    -0.0220 ca         1 259      -0.027000
      6 CAJ         -1.5360    -0.0240    -0.0020 ca         1 259      -0.196200
      7 NAK         -3.0290     0.1050     0.0090 no         1 259       0.698200
      8 OAC         -3.7060    -0.9310    -0.0010 o          1 259      -0.402000
      9 OAB         -3.5180     1.2420     0.0260 o          1 259      -0.402000
     10 CAG         -0.7150     1.1270     0.0080 ca         1 259      -0.027000
     11 CAE          0.6860     1.0040    -0.0020 ca         1 259      -0.130500
     12 HAA1         3.4770     1.7500    -0.9060 h1         1 259       0.072033
     13 HAA2         3.4880     1.7270     0.8880 h1         1 259       0.072033
     14 HAA3         4.8980     1.1190    -0.0260 h1         1 259       0.072033
     15 HAD          0.9300    -2.4010    -0.0470 ha         1 259       0.132000
     16 HAF         -1.5280    -2.2070    -0.0300 ha         1 259       0.151000
     17 HAG         -1.1540     2.1240     0.0240 ha         1 259       0.151000
     18 HAE          1.2820     1.9110     0.0070 ha         1 259       0.132000
@<TRIPOS>BOND
     1     1     2 1   
     2     1    12 1   
     3     1    13 1   
     4     1    14 1   
     5     2     3 1   
     6     3     4 ar  
     7     3    11 ar  
     8     4     5 ar  
     9     4    15 1   
    10     5     6 ar  
    11     5    16 1   
    12     6     7 1   
    13     6    10 ar  
    14     7     8 1   
    15     7     9 1   
    16    10    11 ar  
    17    10    17 1   
    18    11    18 1   
@<TRIPOS>SUBSTRUCTURE
     1 259         1 TEMP              0 ****  ****    0 ROOT
