@<TRIPOS>MOLECULE
259
   18    18     1     0     0
SMALL
bcc


@<TRIPOS>ATOM
      1 CAA          3.6930     1.1670    -0.0210 c3         1 259      -0.036000
      2 SAH          3.0090    -0.4990    -0.0310 ss         1 259      -0.195000
      3 CAI          1.2820    -0.2420    -0.0180 ca         1 259       0.068900
      4 CAD          0.4760    -1.3870    -0.0290 ca         1 259      -0.148500
      5 CAF         -0.8970    -1.2800    -0.0220 ca         1 259      -0.045000
      6 CAJ         -1.4800    -0.0160    -0.0020 ca         1 259      -0.196200
      7 NAK         -2.9210     0.1040     0.0050 no         1 259       0.318200
      8 OAC         -3.5790    -0.9120    -0.0100 o          1 259      -0.212000
      9 OAB         -3.4020     1.2140     0.0260 o          1 259      -0.212000
     10 CAG         -0.6990     1.1300     0.0110 ca         1 259      -0.045000
     11 CAE          0.6790     1.0160     0.0040 ca         1 259      -0.148500
     12 HAA1         3.3970     1.7250    -0.9060 h1         1 259       0.072033
     13 HAA2         3.4110     1.7090     0.8790 h1         1 259       0.072033
     14 HAA3         4.7730     1.0430    -0.0300 h1         1 259       0.072033
     15 HAD          0.9260    -2.3720    -0.0450 ha         1 259       0.150000
     16 HAF         -1.5020    -2.1750    -0.0320 ha         1 259       0.169000
     17 HAG         -1.1470     2.1130     0.0270 ha         1 259       0.169000
     18 HAE          1.2710     1.9190     0.0130 ha         1 259       0.150000
@<TRIPOS>BOND
     1     1     2 1   
     2     1    12 1   
     3     1    13 1   
     4     1    14 1   
     5     2     3 1   
     6     3     4 ar  
     7     3    11 ar  
     8     4     5 ar  
     9     4    15 1   
    10     5     6 ar  
    11     5    16 1   
    12     6     7 1   
    13     6    10 ar  
    14     7     8 1   
    15     7     9 1   
    16    10    11 ar  
    17    10    17 1   
    18    11    18 1   
@<TRIPOS>SUBSTRUCTURE
     1 259         1 TEMP              0 ****  ****    0 ROOT
