@<TRIPOS>MOLECULE
25B
   68    70     1     0     0
SMALL
No Charge or Current Charge


@<TRIPOS>ATOM
      1 O38         -5.3840     1.3490    -1.1360 o          1 25B      -0.524000
      2 S29         -4.9990     1.1130     0.2620 sy         1 25B       1.044500
      3 O37         -5.3630     2.0620     1.3230 o          1 25B      -0.524000
      4 C29         -5.5470    -0.5380     0.7430 ca         1 25B      -0.265500
      5 C30         -5.7210    -1.5380    -0.2370 ca         1 25B      -0.017000
      6 C31         -6.1330    -2.8280     0.1410 ca         1 25B      -0.127500
      7 C32         -6.3710    -3.1260     1.4930 ca         1 25B      -0.055000
      8 C33         -6.1940    -2.1330     2.4710 ca         1 25B      -0.127500
      9 C34         -5.7810    -0.8410     2.1010 ca         1 25B      -0.017000
     10 C37         -3.1990     0.9600     0.2890 c3         1 25B      -0.296400
     11 C10         -2.4600     2.2600    -0.1300 c3         1 25B      -0.063400
     12 C11         -0.9170     2.1460    -0.0650 c3         1 25B       0.113700
     13 C20         -0.2170     3.4670    -0.4660 c3         1 25B      -0.089400
     14 C21          1.3270     3.4230    -0.3590 c3         1 25B      -0.080400
     15 C23          1.9900     4.7840    -0.6630 c3         1 25B      -0.072400
     16 C24          3.5280     4.7420    -0.5770 c3         1 25B      -0.088100
     17 N12         -0.4440     1.0290    -0.8900 ns         1 25B      -0.498900
     18 C13         -0.0450    -0.1960    -0.4040 c          1 25B       0.605100
     19 O39          0.0040    -0.4430     0.7930 o          1 25B      -0.614100
     20 C14          0.3500    -1.2460    -1.4640 c6         1 25B      -0.132700
     21 C15         -0.6450    -2.4380    -1.5220 c6         1 25B      -0.069400
     22 C16         -0.2310    -3.4670    -2.6030 c6         1 25B      -0.075400
     23 C17          1.2230    -3.9600    -2.3880 c6         1 25B      -0.075400
     24 C18          2.2290    -2.7820    -2.4060 c6         1 25B      -0.070400
     25 C19          1.8420    -1.6920    -1.3700 c6         1 25B      -0.145700
     26 C39          2.8460    -0.5120    -1.3320 c          1 25B       0.595700
     27 O41          2.8360     0.3290    -2.2230 o          1 25B      -0.532100
     28 C40          3.8370    -0.4200    -0.1910 ca         1 25B      -0.167600
     29 C41          4.2900     0.8530     0.2220 ca         1 25B      -0.054000
     30 C45          4.3460    -1.5690     0.4590 ca         1 25B      -0.054000
     31 C44          5.2690    -1.4390     1.5130 ca         1 25B      -0.119500
     32 C43          5.6970    -0.1680     1.9230 ca         1 25B       0.143000
     33 Cl22         6.8500    -0.0110     3.2410 cl         1 25B      -0.195000
     34 C42          5.2110     0.9780     1.2770 ca         1 25B      -0.119500
     35 H30         -5.5370    -1.3230    -1.2890 ha         1 25B       0.136500
     36 H31         -6.2680    -3.5970    -0.6160 ha         1 25B       0.121000
     37 H32         -6.6890    -4.1250     1.7830 ha         1 25B       0.118000
     38 H33         -6.3750    -2.3650     3.5180 ha         1 25B       0.121000
     39 H34         -5.6440    -0.0830     2.8720 ha         1 25B       0.136500
     40 H37         -2.9200     0.6720     1.3080 h1         1 25B       0.099700
     41 H37A        -2.9500     0.1380    -0.3920 h1         1 25B       0.099700
     42 H10         -2.7560     2.5330    -1.1510 hc         1 25B       0.064200
     43 H10A        -2.7790     3.0830     0.5220 hc         1 25B       0.064200
     44 H11         -0.6480     1.9460     0.9820 h1         1 25B       0.084700
     45 H20         -0.4980     3.7290    -1.4940 hc         1 25B       0.043200
     46 H20A        -0.5920     4.2720     0.1780 hc         1 25B       0.043200
     47 H21          1.6100     3.1000     0.6510 hc         1 25B       0.051200
     48 H21A         1.7180     2.6750    -1.0580 hc         1 25B       0.051200
     49 H23          1.6980     5.1150    -1.6670 hc         1 25B       0.034700
     50 H23A         1.6150     5.5360     0.0430 hc         1 25B       0.034700
     51 H24          3.9480     5.7350    -0.7770 hc         1 25B       0.032367
     52 H24A         3.8540     4.4250     0.4210 hc         1 25B       0.032367
     53 H24B         3.9380     4.0430    -1.3160 hc         1 25B       0.032367
     54 HN12        -0.4390     1.1450    -1.8950 hn         1 25B       0.313500
     55 H14          0.2470    -0.7370    -2.4330 hc         1 25B       0.070700
     56 H15         -0.6850    -2.9340    -0.5420 hc         1 25B       0.048200
     57 H15A        -1.6610    -2.0710    -1.7260 hc         1 25B       0.048200
     58 H16         -0.9200    -4.3230    -2.5820 hc         1 25B       0.043700
     59 H16A        -0.3260    -3.0170    -3.6010 hc         1 25B       0.043700
     60 H17          1.2950    -4.4960    -1.4310 hc         1 25B       0.044200
     61 H17A         1.4880    -4.6850    -3.1700 hc         1 25B       0.044200
     62 H18          3.2430    -3.1560    -2.2060 hc         1 25B       0.050200
     63 H18A         2.2550    -2.3400    -3.4130 hc         1 25B       0.050200
     64 H19          1.9330    -2.1820    -0.3930 hc         1 25B       0.085700
     65 H41          3.9250     1.7510    -0.2710 ha         1 25B       0.129000
     66 H45          4.0500    -2.5690     0.1490 ha         1 25B       0.129000
     67 H44          5.6560    -2.3260     2.0090 ha         1 25B       0.133000
     68 H42          5.5480     1.9620     1.5910 ha         1 25B       0.133000
@<TRIPOS>BOND
     1     1     2 2   
     2     2     3 2   
     3     2     4 1   
     4     2    10 1   
     5     4     5 ar  
     6     4     9 ar  
     7     5     6 ar  
     8     5    35 1   
     9     6     7 ar  
    10     6    36 1   
    11     7     8 ar  
    12     7    37 1   
    13     8     9 ar  
    14     8    38 1   
    15     9    39 1   
    16    10    11 1   
    17    10    40 1   
    18    10    41 1   
    19    11    12 1   
    20    11    42 1   
    21    11    43 1   
    22    12    13 1   
    23    12    17 1   
    24    12    44 1   
    25    13    14 1   
    26    13    45 1   
    27    13    46 1   
    28    14    15 1   
    29    14    47 1   
    30    14    48 1   
    31    15    16 1   
    32    15    49 1   
    33    15    50 1   
    34    16    51 1   
    35    16    52 1   
    36    16    53 1   
    37    17    18 1   
    38    17    54 1   
    39    18    19 2   
    40    18    20 1   
    41    20    21 1   
    42    20    25 1   
    43    20    55 1   
    44    21    22 1   
    45    21    56 1   
    46    21    57 1   
    47    22    23 1   
    48    22    58 1   
    49    22    59 1   
    50    23    24 1   
    51    23    60 1   
    52    23    61 1   
    53    24    25 1   
    54    24    62 1   
    55    24    63 1   
    56    25    26 1   
    57    25    64 1   
    58    26    27 2   
    59    26    28 1   
    60    28    29 ar  
    61    28    30 ar  
    62    29    34 ar  
    63    29    65 1   
    64    30    31 ar  
    65    30    66 1   
    66    31    32 ar  
    67    31    67 1   
    68    32    33 1   
    69    32    34 ar  
    70    34    68 1   
@<TRIPOS>SUBSTRUCTURE
     1 25B         1 TEMP              0 ****  ****    0 ROOT
