@<TRIPOS>MOLECULE
25B
   68    70     1     0     0
SMALL
abcg2


@<TRIPOS>ATOM
      1 O38         -5.2990     0.8090    -1.6500 o          1 25B      -0.524000
      2 S29         -5.1470     0.8920    -0.1970 sy         1 25B       1.044500
      3 O37         -5.7830     2.0030     0.5070 o          1 25B      -0.524000
      4 C29         -5.7120    -0.6310     0.5140 ca         1 25B      -0.265500
      5 C30         -5.6840    -1.7880    -0.2530 ca         1 25B      -0.017000
      6 C31         -6.0990    -2.9810     0.3190 ca         1 25B      -0.127500
      7 C32         -6.5370    -3.0070     1.6370 ca         1 25B      -0.055000
      8 C33         -6.5620    -1.8410     2.3920 ca         1 25B      -0.127500
      9 C34         -6.1480    -0.6410     1.8330 ca         1 25B      -0.017000
     10 C37         -3.3990     0.9020     0.1850 c3         1 25B      -0.296400
     11 C10         -2.7350     2.1840    -0.2950 c3         1 25B      -0.063400
     12 C11         -1.2210     2.1270    -0.0750 c3         1 25B       0.113700
     13 C20         -0.5590     3.4670    -0.3950 c3         1 25B      -0.089400
     14 C21          0.9330     3.4860    -0.0920 c3         1 25B      -0.080400
     15 C23          1.5920     4.8250    -0.3980 c3         1 25B      -0.072400
     16 C24          3.0880     4.8080    -0.1160 c3         1 25B      -0.088100
     17 N12         -0.6480     1.0540    -0.8630 ns         1 25B      -0.498900
     18 C13          0.1080     0.0550    -0.3770 c          1 25B       0.605100
     19 O39          0.3950    -0.0620     0.8070 o          1 25B      -0.614100
     20 C14          0.5380    -0.9770    -1.4030 c6         1 25B      -0.132700
     21 C15         -0.4760    -2.1290    -1.4320 c6         1 25B      -0.069400
     22 C16         -0.0660    -3.1920    -2.4440 c6         1 25B      -0.075400
     23 C17          1.3420    -3.7070    -2.1690 c6         1 25B      -0.075400
     24 C18          2.3520    -2.5670    -2.1190 c6         1 25B      -0.070400
     25 C19          1.9320    -1.5130    -1.0800 c6         1 25B      -0.145700
     26 C39          2.9560    -0.4020    -1.0510 c          1 25B       0.595700
     27 O41          2.7910     0.6080    -1.7040 o          1 25B      -0.532100
     28 C40          4.2020    -0.5700    -0.2500 ca         1 25B      -0.167600
     29 C41          5.1620     0.4430    -0.2890 ca         1 25B      -0.054000
     30 C45          4.4490    -1.6940     0.5370 ca         1 25B      -0.054000
     31 C44          5.6220    -1.8120     1.2660 ca         1 25B      -0.119500
     32 C43          6.5560    -0.7900     1.2060 ca         1 25B       0.143000
     33 CL22         8.0220    -0.9270     2.1100 cl         1 25B      -0.195000
     34 C42          6.3360     0.3430     0.4340 ca         1 25B      -0.119500
     35 H30         -5.3510    -1.7670    -1.2820 ha         1 25B       0.136500
     36 H31         -6.0820    -3.8900    -0.2680 ha         1 25B       0.121000
     37 H32         -6.8590    -3.9410     2.0780 ha         1 25B       0.118000
     38 H33         -6.9070    -1.8630     3.4160 ha         1 25B       0.121000
     39 H34         -6.1710     0.2670     2.4190 ha         1 25B       0.136500
     40 H37         -3.3050     0.7820     1.2660 h1         1 25B       0.099700
     41 H37A        -2.9750     0.0190    -0.2960 h1         1 25B       0.099700
     42 H10         -2.9420     2.3520    -1.3550 hc         1 25B       0.064200
     43 H10A        -3.1370     3.0370     0.2520 hc         1 25B       0.064200
     44 H11         -1.0300     1.8860     0.9730 h1         1 25B       0.084700
     45 H20         -0.7300     3.7150    -1.4490 hc         1 25B       0.043200
     46 H20A        -1.0630     4.2450     0.1860 hc         1 25B       0.043200
     47 H21          1.0890     3.2360     0.9630 hc         1 25B       0.051200
     48 H21A         1.4370     2.7050    -0.6660 hc         1 25B       0.051200
     49 H23          1.4210     5.0820    -1.4490 hc         1 25B       0.034700
     50 H23A         1.1140     5.6160     0.1880 hc         1 25B       0.034700
     51 H24          3.5530     5.7670    -0.3480 hc         1 25B       0.032367
     52 H24A         3.2880     4.5870     0.9330 hc         1 25B       0.032367
     53 H24B         3.5890     4.0430    -0.7130 hc         1 25B       0.032367
     54 HN12        -0.7740     1.1040    -1.8630 hn         1 25B       0.313500
     55 H14          0.5550    -0.5210    -2.3980 hc         1 25B       0.070700
     56 H15         -0.5480    -2.5760    -0.4350 hc         1 25B       0.048200
     57 H15A        -1.4670    -1.7410    -1.6780 hc         1 25B       0.048200
     58 H16         -0.7820    -4.0170    -2.4240 hc         1 25B       0.043700
     59 H16A        -0.1070    -2.7660    -3.4510 hc         1 25B       0.043700
     60 H17          1.3560    -4.2470    -1.2160 hc         1 25B       0.044200
     61 H17A         1.6370    -4.4260    -2.9370 hc         1 25B       0.044200
     62 H18          3.3450    -2.9580    -1.8870 hc         1 25B       0.050200
     63 H18A         2.4230    -2.0920    -3.1030 hc         1 25B       0.050200
     64 H19          1.8900    -2.0010    -0.1020 hc         1 25B       0.085700
     65 H41          4.9900     1.3240    -0.8930 ha         1 25B       0.129000
     66 H45          3.7310    -2.4990     0.6040 ha         1 25B       0.129000
     67 H44          5.8020    -2.6890     1.8720 ha         1 25B       0.133000
     68 H42          7.0720     1.1340     0.3960 ha         1 25B       0.133000
@<TRIPOS>BOND
     1     1     2 2   
     2     2     3 2   
     3     2     4 1   
     4     2    10 1   
     5     4     5 ar  
     6     4     9 ar  
     7     5     6 ar  
     8     5    35 1   
     9     6     7 ar  
    10     6    36 1   
    11     7     8 ar  
    12     7    37 1   
    13     8     9 ar  
    14     8    38 1   
    15     9    39 1   
    16    10    11 1   
    17    10    40 1   
    18    10    41 1   
    19    11    12 1   
    20    11    42 1   
    21    11    43 1   
    22    12    13 1   
    23    12    17 1   
    24    12    44 1   
    25    13    14 1   
    26    13    45 1   
    27    13    46 1   
    28    14    15 1   
    29    14    47 1   
    30    14    48 1   
    31    15    16 1   
    32    15    49 1   
    33    15    50 1   
    34    16    51 1   
    35    16    52 1   
    36    16    53 1   
    37    17    18 1   
    38    17    54 1   
    39    18    19 2   
    40    18    20 1   
    41    20    21 1   
    42    20    25 1   
    43    20    55 1   
    44    21    22 1   
    45    21    56 1   
    46    21    57 1   
    47    22    23 1   
    48    22    58 1   
    49    22    59 1   
    50    23    24 1   
    51    23    60 1   
    52    23    61 1   
    53    24    25 1   
    54    24    62 1   
    55    24    63 1   
    56    25    26 1   
    57    25    64 1   
    58    26    27 2   
    59    26    28 1   
    60    28    29 ar  
    61    28    30 ar  
    62    29    34 ar  
    63    29    65 1   
    64    30    31 ar  
    65    30    66 1   
    66    31    32 ar  
    67    31    67 1   
    68    32    33 1   
    69    32    34 ar  
    70    34    68 1   
@<TRIPOS>SUBSTRUCTURE
     1 25B         1 TEMP              0 ****  ****    0 ROOT
