@<TRIPOS>MOLECULE
25D
   71    74     1     0     0
SMALL
abcg2


@<TRIPOS>ATOM
      1 C1           8.7250    -2.3040     1.1380 c3         1 25D      -0.040800
      2 C2           7.2950    -1.9950     0.8050 ca         1 25D      -0.081300
      3 C3           6.3530    -1.7910     1.8060 ca         1 25D      -0.112500
      4 C4           5.0240    -1.4890     1.5180 ca         1 25D      -0.064300
      5 C5           4.0360    -1.3060     2.6310 c3         1 25D      -0.048300
      6 C6           4.6440    -1.3750     0.1800 ca         1 25D      -0.025000
      7 N7           3.3000    -1.0920    -0.1570 ns         1 25D      -0.186000
      8 C8           2.7550     0.1480     0.0030 c          1 25D       0.665100
      9 O9           3.3710     1.0810     0.4900 o          1 25D      -0.635100
     10 N10          1.4550     0.2130    -0.4240 ns         1 25D      -0.174000
     11 C11          0.6310     1.3310    -0.4590 ca         1 25D       0.040000
     12 C12          1.1080     2.6220    -0.4940 ca         1 25D      -0.167000
     13 C13          0.2350     3.7260    -0.5730 ca         1 25D       0.001000
     14 C14          0.7210     5.0560    -0.6140 ca         1 25D      -0.107000
     15 C15         -0.1460     6.1100    -0.7120 ca         1 25D      -0.110000
     16 C16         -1.5390     5.8920    -0.7740 ca         1 25D      -0.135000
     17 C17         -2.0370     4.6190    -0.7380 ca         1 25D      -0.078000
     18 C18         -1.1630     3.5120    -0.6340 ca         1 25D      -0.074000
     19 C19         -1.6330     2.1850    -0.5900 ca         1 25D      -0.053000
     20 C20         -0.7860     1.1120    -0.4820 ca         1 25D      -0.165600
     21 C21         -1.3570    -0.2740    -0.4550 c          1 25D       0.622700
     22 O22         -0.7670    -1.2140    -0.9930 o          1 25D      -0.629100
     23 N23         -2.5180    -0.4050     0.1830 ns         1 25D      -0.448900
     24 C24         -3.3190    -1.6260     0.2130 c3         1 25D      -0.008600
     25 C25         -2.6560    -2.6130     1.1750 c3         1 25D      -0.073100
     26 C26         -4.7200    -1.2180     0.7510 c6         1 25D      -0.040700
     27 C27         -5.4060    -0.0950    -0.0360 c6         1 25D      -0.069400
     28 C28         -6.7050     0.3430     0.6350 c6         1 25D      -0.074400
     29 C29         -7.6660    -0.8280     0.7990 c6         1 25D      -0.071400
     30 C30         -6.9950    -1.9720     1.5490 c6         1 25D      -0.074400
     31 C31         -5.6900    -2.3960     0.8800 c6         1 25D      -0.069400
     32 C32         -3.4610    -2.2070    -1.2280 c          1 25D       0.735000
     33 O33         -3.5360    -3.4480    -1.3120 o          1 25D      -0.712500
     34 O34         -3.5400    -1.3910    -2.1620 o          1 25D      -0.712500
     35 C35          5.5680    -1.5800    -0.8510 ca         1 25D      -0.064300
     36 C36          5.1490    -1.4620    -2.2870 c3         1 25D      -0.048300
     37 C37          6.8800    -1.8930    -0.5200 ca         1 25D      -0.112500
     38 H1           9.3590    -1.4260     1.0000 hc         1 25D       0.036367
     39 H1A          8.8350    -2.6260     2.1730 hc         1 25D       0.036367
     40 H1B          9.1240    -3.0900     0.4960 hc         1 25D       0.036367
     41 H3           6.6540    -1.8860     2.8440 ha         1 25D       0.105500
     42 H5           3.8370    -0.2490     2.8170 hc         1 25D       0.046367
     43 H5A          3.0790    -1.7750     2.3990 hc         1 25D       0.046367
     44 H5B          4.4100    -1.7390     3.5580 hc         1 25D       0.046367
     45 HN7          2.8140    -1.7680    -0.7270 hn         1 25D       0.165000
     46 HN10         0.9820    -0.6460    -0.6880 hn         1 25D       0.204000
     47 H12          2.1700     2.8100    -0.4790 ha         1 25D       0.139000
     48 H14          1.7900     5.2250    -0.5690 ha         1 25D       0.111000
     49 H15          0.2370     7.1220    -0.7430 ha         1 25D       0.100000
     50 H16         -2.2110     6.7370    -0.8500 ha         1 25D       0.102000
     51 H17         -3.1050     4.4440    -0.7840 ha         1 25D       0.111000
     52 H19         -2.7030     2.0260    -0.6630 ha         1 25D       0.130000
     53 HN23        -2.8400     0.3770     0.7300 hn         1 25D       0.291500
     54 H25         -2.5920    -2.1760     2.1750 hc         1 25D       0.027033
     55 H25A        -3.2080    -3.5460     1.2510 hc         1 25D       0.027033
     56 H25B        -1.6460    -2.8560     0.8470 hc         1 25D       0.027033
     57 H26         -4.5440    -0.8400     1.7710 hc         1 25D       0.004700
     58 H27         -4.7510     0.7730    -0.1450 hc         1 25D       0.056200
     59 H27A        -5.6200    -0.4400    -1.0500 hc         1 25D       0.056200
     60 H28         -6.4820     0.7710     1.6190 hc         1 25D       0.021700
     61 H28A        -7.1720     1.1390     0.0500 hc         1 25D       0.021700
     62 H29         -8.5740    -0.5120     1.3180 hc         1 25D       0.028200
     63 H29A        -7.9790    -1.1790    -0.1910 hc         1 25D       0.028200
     64 H30         -6.7910    -1.6590     2.5780 hc         1 25D       0.021700
     65 H30A        -7.6700    -2.8300     1.6150 hc         1 25D       0.021700
     66 H31         -5.9120    -2.8010    -0.1120 hc         1 25D       0.056200
     67 H31A        -5.2400    -3.2090     1.4530 hc         1 25D       0.056200
     68 H36          4.7330    -0.4760    -2.5030 hc         1 25D       0.046367
     69 H36A         5.9960    -1.6180    -2.9530 hc         1 25D       0.046367
     70 H36B         4.3850    -2.1950    -2.5520 hc         1 25D       0.046367
     71 H37          7.5990    -2.0540    -1.3160 ha         1 25D       0.105500
@<TRIPOS>BOND
     1     1     2 1   
     2     1    38 1   
     3     1    39 1   
     4     1    40 1   
     5     2     3 ar  
     6     2    37 ar  
     7     3     4 ar  
     8     3    41 1   
     9     4     5 1   
    10     4     6 ar  
    11     5    42 1   
    12     5    43 1   
    13     5    44 1   
    14     6     7 1   
    15     6    35 ar  
    16     7     8 1   
    17     7    45 1   
    18     8     9 2   
    19     8    10 1   
    20    10    11 1   
    21    10    46 1   
    22    11    12 ar  
    23    11    20 ar  
    24    12    13 ar  
    25    12    47 1   
    26    13    14 ar  
    27    13    18 ar  
    28    14    15 ar  
    29    14    48 1   
    30    15    16 ar  
    31    15    49 1   
    32    16    17 ar  
    33    16    50 1   
    34    17    18 ar  
    35    17    51 1   
    36    18    19 ar  
    37    19    20 ar  
    38    19    52 1   
    39    20    21 1   
    40    21    22 2   
    41    21    23 1   
    42    23    24 1   
    43    23    53 1   
    44    24    25 1   
    45    24    26 1   
    46    24    32 1   
    47    25    54 1   
    48    25    55 1   
    49    25    56 1   
    50    26    27 1   
    51    26    31 1   
    52    26    57 1   
    53    27    28 1   
    54    27    58 1   
    55    27    59 1   
    56    28    29 1   
    57    28    60 1   
    58    28    61 1   
    59    29    30 1   
    60    29    62 1   
    61    29    63 1   
    62    30    31 1   
    63    30    64 1   
    64    30    65 1   
    65    31    66 1   
    66    31    67 1   
    67    32    33 1   
    68    32    34 1   
    69    35    36 1   
    70    35    37 ar  
    71    36    68 1   
    72    36    69 1   
    73    36    70 1   
    74    37    71 1   
@<TRIPOS>SUBSTRUCTURE
     1 25D         1 TEMP              0 ****  ****    0 ROOT
