@<TRIPOS>MOLECULE
25D
   71    74     1     0     0
SMALL
No Charge or Current Charge


@<TRIPOS>ATOM
      1 C1           8.8140    -2.8280     0.7430 c3         1 25D      -0.040800
      2 C2           7.4010    -2.2970     0.5510 ca         1 25D      -0.081300
      3 C3           6.7600    -1.5990     1.5870 ca         1 25D      -0.112500
      4 C4           5.4530    -1.1000     1.4240 ca         1 25D      -0.064300
      5 C5           4.7930    -0.4070     2.6150 c3         1 25D      -0.048300
      6 C6           4.7840    -1.2900     0.1860 ca         1 25D      -0.025000
      7 N7           3.4670    -0.8060    -0.0340 ns         1 25D      -0.186000
      8 C8           2.9660     0.4800     0.0650 c          1 25D       0.665100
      9 O9           3.6620     1.4550     0.3220 o          1 25D      -0.635100
     10 N10          1.6020     0.5180    -0.1670 ns         1 25D      -0.174000
     11 C11          0.6520     1.5770    -0.2160 ca         1 25D       0.040000
     12 C12          1.0660     2.9270    -0.2780 ca         1 25D      -0.167000
     13 C13          0.1300     3.9710    -0.3160 ca         1 25D       0.001000
     14 C14          0.5620     5.3100    -0.3750 ca         1 25D      -0.107000
     15 C15         -0.3790     6.3540    -0.4170 ca         1 25D      -0.110000
     16 C16         -1.7520     6.0600    -0.4020 ca         1 25D      -0.135000
     17 C17         -2.1860     4.7250    -0.3440 ca         1 25D      -0.078000
     18 C18         -1.2450     3.6780    -0.3000 ca         1 25D      -0.074000
     19 C19         -1.6730     2.3410    -0.2490 ca         1 25D      -0.053000
     20 C20         -0.7420     1.2700    -0.2060 ca         1 25D      -0.165600
     21 C21         -1.2480    -0.1690    -0.1550 c          1 25D       0.622700
     22 O22         -0.5430    -1.1270    -0.4470 o          1 25D      -0.629100
     23 N23         -2.5720    -0.3270     0.2210 ns         1 25D      -0.448900
     24 C24         -3.3300    -1.6070     0.3240 c3         1 25D      -0.008600
     25 C25         -2.6960    -2.4230     1.4990 c3         1 25D      -0.073100
     26 C26         -4.8430    -1.2500     0.6500 c6         1 25D      -0.040700
     27 C27         -5.4890    -0.2420    -0.3600 c6         1 25D      -0.069400
     28 C28         -6.9290     0.1470     0.0560 c6         1 25D      -0.074400
     29 C29         -7.8270    -1.1030     0.1920 c6         1 25D      -0.071400
     30 C30         -7.2150    -2.1140     1.1870 c6         1 25D      -0.074400
     31 C31         -5.7700    -2.5030     0.7840 c6         1 25D      -0.069400
     32 C32         -3.2230    -2.4080    -1.0460 c          1 25D       0.735000
     33 O33         -3.0520    -3.6220    -1.0160 o          1 25D      -0.712500
     34 O34         -3.2550    -1.7850    -2.1020 o          1 25D      -0.712500
     35 C35          5.4210    -2.0130    -0.8510 ca         1 25D      -0.064300
     36 C36          4.7190    -2.2530    -2.1860 c3         1 25D      -0.048300
     37 C37          6.7260    -2.5040    -0.6630 ca         1 25D      -0.112500
     38 H1           9.5560    -2.0810     0.4390 hc         1 25D       0.036367
     39 H1A          9.0050    -3.0840     1.7920 hc         1 25D       0.036367
     40 H1B          8.9860    -3.7330     0.1480 hc         1 25D       0.036367
     41 H3           7.2790    -1.4500     2.5310 ha         1 25D       0.105500
     42 H5           4.9430     0.6780     2.5730 hc         1 25D       0.046367
     43 H5A          3.7160    -0.6030     2.6590 hc         1 25D       0.046367
     44 H5B          5.2170    -0.7570     3.5630 hc         1 25D       0.046367
     45 HN7          2.7990    -1.5120    -0.3160 hn         1 25D       0.165000
     46 HN10         1.1870    -0.3910    -0.3330 hn         1 25D       0.204000
     47 H12          2.1180     3.1850    -0.3090 ha         1 25D       0.139000
     48 H14          1.6240     5.5440    -0.3890 ha         1 25D       0.111000
     49 H15         -0.0430     7.3870    -0.4620 ha         1 25D       0.100000
     50 H16         -2.4810     6.8670    -0.4350 ha         1 25D       0.102000
     51 H17         -3.2520     4.5070    -0.3340 ha         1 25D       0.111000
     52 H19         -2.7430     2.1510    -0.2650 ha         1 25D       0.130000
     53 HN23        -3.0610     0.5210     0.4700 hn         1 25D       0.291500
     54 H25         -2.7670    -1.8650     2.4410 hc         1 25D       0.027033
     55 H25A        -3.1910    -3.3890     1.6440 hc         1 25D       0.027033
     56 H25B        -1.6380    -2.6370     1.3180 hc         1 25D       0.027033
     57 H26         -4.8220    -0.7530     1.6300 hc         1 25D       0.004700
     58 H27         -4.8920     0.6750    -0.4410 hc         1 25D       0.056200
     59 H27A        -5.5200    -0.6800    -1.3660 hc         1 25D       0.056200
     60 H28         -6.9050     0.6930     1.0090 hc         1 25D       0.021700
     61 H28A        -7.3580     0.8330    -0.6870 hc         1 25D       0.021700
     62 H29         -8.8300    -0.8080     0.5290 hc         1 25D       0.028200
     63 H29A        -7.9540    -1.5790    -0.7900 hc         1 25D       0.028200
     64 H30         -7.2120    -1.6830     2.1970 hc         1 25D       0.021700
     65 H30A        -7.8420    -3.0150     1.2340 hc         1 25D       0.021700
     66 H31         -5.7960    -3.0570    -0.1650 hc         1 25D       0.056200
     67 H31A        -5.3840    -3.1990     1.5380 hc         1 25D       0.056200
     68 H36          4.4460    -1.3050    -2.6650 hc         1 25D       0.046367
     69 H36A         5.3560    -2.8020    -2.8900 hc         1 25D       0.046367
     70 H36B         3.8030    -2.8400    -2.0500 hc         1 25D       0.046367
     71 H37          7.2200    -3.0490    -1.4640 ha         1 25D       0.105500
@<TRIPOS>BOND
     1     1     2 1   
     2     1    38 1   
     3     1    39 1   
     4     1    40 1   
     5     2     3 ar  
     6     2    37 ar  
     7     3     4 ar  
     8     3    41 1   
     9     4     5 1   
    10     4     6 ar  
    11     5    42 1   
    12     5    43 1   
    13     5    44 1   
    14     6     7 1   
    15     6    35 ar  
    16     7     8 1   
    17     7    45 1   
    18     8     9 2   
    19     8    10 1   
    20    10    11 1   
    21    10    46 1   
    22    11    12 ar  
    23    11    20 ar  
    24    12    13 ar  
    25    12    47 1   
    26    13    14 ar  
    27    13    18 ar  
    28    14    15 ar  
    29    14    48 1   
    30    15    16 ar  
    31    15    49 1   
    32    16    17 ar  
    33    16    50 1   
    34    17    18 ar  
    35    17    51 1   
    36    18    19 ar  
    37    19    20 ar  
    38    19    52 1   
    39    20    21 1   
    40    21    22 2   
    41    21    23 1   
    42    23    24 1   
    43    23    53 1   
    44    24    25 1   
    45    24    26 1   
    46    24    32 1   
    47    25    54 1   
    48    25    55 1   
    49    25    56 1   
    50    26    27 1   
    51    26    31 1   
    52    26    57 1   
    53    27    28 1   
    54    27    58 1   
    55    27    59 1   
    56    28    29 1   
    57    28    60 1   
    58    28    61 1   
    59    29    30 1   
    60    29    62 1   
    61    29    63 1   
    62    30    31 1   
    63    30    64 1   
    64    30    65 1   
    65    31    66 1   
    66    31    67 1   
    67    32    33 1   
    68    32    34 1   
    69    35    36 1   
    70    35    37 ar  
    71    36    68 1   
    72    36    69 1   
    73    36    70 1   
    74    37    71 1   
@<TRIPOS>SUBSTRUCTURE
     1 25D         1 TEMP              0 ****  ****    0 ROOT
