@<TRIPOS>MOLECULE
25F
   27    29     1     0     0
SMALL
No Charge or Current Charge


@<TRIPOS>ATOM
      1 C           -3.1050     0.0560    -0.0220 ca         1 25F      -0.001900
      2 N            1.8740     1.0180    -0.1020 nc         1 25F      -0.628100
      3 O            3.5860    -2.6810     0.5140 o          1 25F      -0.534000
      4 Br          -5.0150     0.1420    -0.0760 br         1 25F      -0.084100
      5 C1          -2.3630     1.1800     0.3680 ca         1 25F      -0.090500
      6 N1           1.7920    -1.3460     0.2840 ns         1 25F      -0.428400
      7 C2          -0.9590     1.1180     0.4060 ca         1 25F      -0.074000
      8 C3          -0.2750    -0.0760     0.0690 ca         1 25F      -0.138900
      9 C4          -1.0410    -1.1940    -0.3450 ca         1 25F      -0.074000
     10 C5          -2.4460    -1.1280    -0.3830 ca         1 25F      -0.090500
     11 C6           1.2080    -0.1290     0.0750 cd         1 25F       0.557500
     12 C7           3.2720     0.8760    -0.0790 ca         1 25F       0.188400
     13 C8           3.9390    -0.3500     0.1180 ca         1 25F      -0.203600
     14 C9           5.3490    -0.4090     0.1260 ca         1 25F      -0.040000
     15 C10          6.1020     0.7590    -0.0650 ca         1 25F      -0.132000
     16 C11          5.4500     1.9850    -0.2610 ca         1 25F      -0.074000
     17 C12          4.0460     2.0370    -0.2680 ca         1 25F      -0.104000
     18 C13          3.1230    -1.5680     0.3220 c          1 25F       0.579600
     19 H1          -2.8730     2.1010     0.6400 ha         1 25F       0.135500
     20 HN1          1.2120    -2.1550     0.4440 hn         1 25F       0.332500
     21 H2          -0.4060     2.0050     0.7110 ha         1 25F       0.131000
     22 H4          -0.5590    -2.1190    -0.6550 ha         1 25F       0.131000
     23 H5          -3.0210    -1.9960    -0.6990 ha         1 25F       0.135500
     24 H9           5.8620    -1.3580     0.2800 ha         1 25F       0.136000
     25 H10          7.1890     0.7140    -0.0590 ha         1 25F       0.120000
     26 H11          6.0290     2.8940    -0.4090 ha         1 25F       0.118000
     27 H12          3.5490     2.9910    -0.4210 ha         1 25F       0.133000
@<TRIPOS>BOND
     1     1     4 1   
     2     1     5 ar  
     3     1    10 ar  
     4     2    11 2   
     5     2    12 1   
     6     3    18 2   
     7     5     7 ar  
     8     5    19 1   
     9     6    11 1   
    10     6    18 1   
    11     6    20 1   
    12     7     8 ar  
    13     7    21 1   
    14     8     9 ar  
    15     8    11 1   
    16     9    10 ar  
    17     9    22 1   
    18    10    23 1   
    19    12    13 ar  
    20    12    17 ar  
    21    13    14 ar  
    22    13    18 1   
    23    14    15 ar  
    24    14    24 1   
    25    15    16 ar  
    26    15    25 1   
    27    16    17 ar  
    28    16    26 1   
    29    17    27 1   
@<TRIPOS>SUBSTRUCTURE
     1 25F         1 TEMP              0 ****  ****    0 ROOT
