@<TRIPOS>MOLECULE
25F
   27    29     1     0     0
SMALL
bcc


@<TRIPOS>ATOM
      1 C           -3.0390     0.0830    -0.0160 ca         1 25F      -0.001900
      2 N            1.8770     0.9380    -0.1070 nc         1 25F      -0.628100
      3 O            3.6070    -2.6860     0.4800 o          1 25F      -0.609500
      4 BR          -4.9190     0.2010    -0.0430 br         1 25F      -0.084100
      5 C1          -2.2900     1.1960     0.3420 ca         1 25F      -0.108500
      6 N1           1.7880    -1.3590     0.2640 ns         1 25F      -0.495400
      7 C2          -0.9090     1.1030     0.3590 ca         1 25F      -0.092000
      8 C3          -0.2710    -0.0920     0.0320 ca         1 25F      -0.138900
      9 C4          -1.0430    -1.1940    -0.3270 ca         1 25F      -0.092000
     10 C5          -2.4260    -1.1120    -0.3560 ca         1 25F      -0.108500
     11 C6           1.2030    -0.1440     0.0590 cd         1 25F       0.557500
     12 C7           3.2470     0.8580    -0.0780 ca         1 25F       0.188400
     13 C8           3.9270    -0.3560     0.1060 ca         1 25F      -0.203600
     14 C9           5.3240    -0.3910     0.1230 ca         1 25F      -0.058000
     15 C10          6.0420     0.7730    -0.0460 ca         1 25F      -0.150000
     16 C11          5.3700     1.9860    -0.2320 ca         1 25F      -0.092000
     17 C12          3.9930     2.0330    -0.2490 ca         1 25F      -0.122000
     18 C13          3.1500    -1.5740     0.2960 c          1 25F       0.722100
     19 H1          -2.7670     2.1290     0.6120 ha         1 25F       0.153500
     20 HN1          1.2060    -2.1670     0.4480 hn         1 25F       0.332500
     21 H2          -0.3240     1.9680     0.6390 ha         1 25F       0.149000
     22 H4          -0.5870    -2.1310    -0.6200 ha         1 25F       0.149000
     23 H5          -3.0050    -1.9780    -0.6480 ha         1 25F       0.153500
     24 H9           5.8350    -1.3330     0.2710 ha         1 25F       0.154000
     25 H10          7.1230     0.7500    -0.0350 ha         1 25F       0.138000
     26 H11          5.9380     2.8970    -0.3670 ha         1 25F       0.136000
     27 H12          3.4690     2.9680    -0.3960 ha         1 25F       0.151000
@<TRIPOS>BOND
     1     1     4 1   
     2     1     5 ar  
     3     1    10 ar  
     4     2    11 2   
     5     2    12 1   
     6     3    18 2   
     7     5     7 ar  
     8     5    19 1   
     9     6    11 1   
    10     6    18 1   
    11     6    20 1   
    12     7     8 ar  
    13     7    21 1   
    14     8     9 ar  
    15     8    11 1   
    16     9    10 ar  
    17     9    22 1   
    18    10    23 1   
    19    12    13 ar  
    20    12    17 ar  
    21    13    14 ar  
    22    13    18 1   
    23    14    15 ar  
    24    14    24 1   
    25    15    16 ar  
    26    15    25 1   
    27    16    17 ar  
    28    16    26 1   
    29    17    27 1   
@<TRIPOS>SUBSTRUCTURE
     1 25F         1 TEMP              0 ****  ****    0 ROOT
