@<TRIPOS>MOLECULE
25G
   62    66     1     0     0
SMALL
bcc


@<TRIPOS>ATOM
      1 C10          3.6770    -2.9080    -2.1080 ca         1 25G      -0.098000
      2 C17         -1.5740    -1.0110     0.3330 ca         1 25G       0.098600
      3 C20         -3.9080    -1.5670     0.5200 ca         1 25G      -0.097000
      4 C21         -4.1950    -0.2580     0.8920 ca         1 25G      -0.162500
      5 C22         -3.1560     0.6690     0.9750 ca         1 25G      -0.062000
      6 C24         -0.2260     1.6210    -0.6990 ca         1 25G      -0.084300
      7 C26         -1.0880     2.0210    -1.7180 ca         1 25G      -0.122000
      8 C28          1.6080     1.7030    -2.2740 ca         1 25G      -0.126500
      9 C01          4.7630     2.5350     0.1150 c6         1 25G      -0.073900
     10 C02          4.8700     1.0150     0.0380 c6         1 25G      -0.072900
     11 C03          4.2530     0.3340     1.2590 c6         1 25G      -0.056700
     12 C04          4.8700     0.8820     2.5450 c6         1 25G      -0.072900
     13 C05          4.7500     2.4000     2.6270 c6         1 25G      -0.073900
     14 C06          5.3700     3.0720     1.4060 c6         1 25G      -0.074400
     15 C07          4.3840    -1.1910     1.1970 c3         1 25G      -0.125700
     16 C08          3.6820    -1.7870     0.0120 ca         1 25G       0.425600
     17 C09          4.3790    -2.3950    -1.0320 ca         1 25G      -0.224300
     18 C11          2.2930    -2.8070    -2.1240 ca         1 25G      -0.189300
     19 C12          1.6840    -2.1860    -1.0470 ca         1 25G       0.359800
     20 N13          2.3580    -1.6920    -0.0160 nb         1 25G      -0.693000
     21 C14          0.1910    -2.0390    -1.0100 c          1 25G       0.583600
     22 O15         -0.5230    -2.4710    -1.8950 o          1 25G      -0.578100
     23 N16         -0.2500    -1.3840     0.0870 ns         1 25G      -0.472100
     24 C18         -1.8480     0.3170     0.6870 ca         1 25G      -0.110300
     25 C19         -2.6040    -1.9420     0.2480 ca         1 25G      -0.131000
     26 C23         -0.7590     1.3580     0.6910 c3         1 25G       0.016200
     27 C25         -0.6100     2.2620    -2.9970 ca         1 25G      -0.126500
     28 C27          1.1240     1.4680    -0.9930 ca         1 25G      -0.122000
     29 C29          0.7420     2.1010    -3.2810 ca         1 25G      -0.125000
     30 C30         -5.5500     0.1710     1.2000 cc         1 25G       0.467000
     31 N31         -6.6650    -0.5570     1.0840 na         1 25G      -0.163400
     32 N32         -5.9160     1.3530     1.6460 nd         1 25G      -0.394000
     33 N33         -7.2380     1.3120     1.7880 nd         1 25G      -0.041000
     34 N34         -7.7020     0.1730     1.4560 nc         1 25G      -0.205800
     35 H101         4.2000    -3.3820    -2.9280 ha         1 25G       0.144000
     36 H201        -4.6830    -2.3190     0.4560 ha         1 25G       0.126000
     37 H221        -3.3760     1.6930     1.2490 ha         1 25G       0.160000
     38 H261        -2.1450     2.1440    -1.5110 ha         1 25G       0.132500
     39 H281         2.6620     1.5700    -2.4810 ha         1 25G       0.130000
     40 H012         5.2520     2.9860    -0.7520 hc         1 25G       0.040700
     41 H011         3.7090     2.8310     0.0590 hc         1 25G       0.040700
     42 H021         4.3960     0.6550    -0.8800 hc         1 25G       0.038450
     43 H022         5.9270     0.7280    -0.0330 hc         1 25G       0.038450
     44 H031         3.1810     0.5710     1.2830 hc         1 25G       0.053700
     45 H042         4.3910     0.4160     3.4110 hc         1 25G       0.038450
     46 H041         5.9290     0.5980     2.5870 hc         1 25G       0.038450
     47 H051         3.6920     2.6750     2.6950 hc         1 25G       0.040700
     48 H052         5.2230     2.7640     3.5420 hc         1 25G       0.040700
     49 H061         6.4500     2.8870     1.4020 hc         1 25G       0.039200
     50 H062         5.2420     4.1560     1.4630 hc         1 25G       0.039200
     51 H071         5.4410    -1.4690     1.1770 hc         1 25G       0.056700
     52 H072         3.9600    -1.6200     2.1090 hc         1 25G       0.056700
     53 H091         5.4580    -2.4610    -0.9950 ha         1 25G       0.145000
     54 H111         1.7110    -3.1990    -2.9460 ha         1 25G       0.168000
     55 H161         0.4820    -1.0290     0.6910 hn         1 25G       0.355500
     56 H191        -2.3890    -2.9690    -0.0060 ha         1 25G       0.155000
     57 H232         0.0630     1.0690     1.3520 hc         1 25G       0.057700
     58 H231        -1.1620     2.2830     1.1110 hc         1 25G       0.057700
     59 H251        -1.2930     2.5750    -3.7760 ha         1 25G       0.130000
     60 H271         1.8100     1.1560    -0.2150 ha         1 25G       0.132500
     61 H291         1.1130     2.2860    -4.2810 ha         1 25G       0.130000
     62 H1          -6.8010    -1.5070     0.7670 hn         1 25G       0.336700
@<TRIPOS>BOND
     1     1    17 ar  
     2     1    18 ar  
     3     1    35 1   
     4     2    23 1   
     5     2    24 ar  
     6     2    25 ar  
     7     3     4 ar  
     8     3    25 ar  
     9     3    36 1   
    10     4     5 ar  
    11     4    30 1   
    12     5    24 ar  
    13     5    37 1   
    14     6     7 ar  
    15     6    26 1   
    16     6    28 ar  
    17     7    27 ar  
    18     7    38 1   
    19     8    28 ar  
    20     8    29 ar  
    21     8    39 1   
    22     9    10 1   
    23     9    14 1   
    24     9    40 1   
    25     9    41 1   
    26    10    11 1   
    27    10    42 1   
    28    10    43 1   
    29    11    12 1   
    30    11    15 1   
    31    11    44 1   
    32    12    13 1   
    33    12    45 1   
    34    12    46 1   
    35    13    14 1   
    36    13    47 1   
    37    13    48 1   
    38    14    49 1   
    39    14    50 1   
    40    15    16 1   
    41    15    51 1   
    42    15    52 1   
    43    16    17 ar  
    44    16    20 ar  
    45    17    53 1   
    46    18    19 ar  
    47    18    54 1   
    48    19    20 ar  
    49    19    21 1   
    50    21    22 2   
    51    21    23 1   
    52    23    55 1   
    53    24    26 1   
    54    25    56 1   
    55    26    57 1   
    56    26    58 1   
    57    27    29 ar  
    58    27    59 1   
    59    28    60 1   
    60    29    61 1   
    61    30    31 1   
    62    30    32 2   
    63    31    34 1   
    64    31    62 1   
    65    32    33 1   
    66    33    34 2   
@<TRIPOS>SUBSTRUCTURE
     1 25G         1 TEMP              0 ****  ****    0 ROOT
