@<TRIPOS>MOLECULE
25G
   62    66     1     0     0
SMALL
No Charge or Current Charge


@<TRIPOS>ATOM
      1 C10          3.9110    -3.5800    -1.6250 ca         1 25G      -0.080000
      2 C17         -1.5980    -1.1490     0.1420 ca         1 25G       0.006000
      3 C20         -4.0010    -1.5990     0.1700 ca         1 25G      -0.079000
      4 C21         -4.2600    -0.3050     0.6680 ca         1 25G      -0.162500
      5 C22         -3.1680     0.5570     0.9050 ca         1 25G      -0.044000
      6 C24         -0.2420     1.7970    -0.3960 ca         1 25G      -0.084300
      7 C26         -1.0470     2.7750    -1.0140 ca         1 25G      -0.104000
      8 C28          1.3940     2.0400    -2.1940 ca         1 25G      -0.108500
      9 C01          4.6330     2.4540    -0.2610 c6         1 25G      -0.073900
     10 C02          4.8170     0.9190    -0.1640 c6         1 25G      -0.072900
     11 C03          4.2900     0.3640     1.1910 c6         1 25G      -0.056700
     12 C04          4.9680     1.1020     2.3790 c6         1 25G      -0.072900
     13 C05          4.7790     2.6360     2.2790 c6         1 25G      -0.073900
     14 C06          5.3080     3.1780     0.9290 c6         1 25G      -0.074400
     15 C07          4.4820    -1.1800     1.3090 c3         1 25G      -0.125700
     16 C08          3.8140    -2.0020     0.2130 ca         1 25G       0.360300
     17 C09          4.5690    -2.8210    -0.6450 ca         1 25G      -0.141000
     18 C11          2.5120    -3.4870    -1.7110 ca         1 25G      -0.106000
     19 C12          1.8110    -2.6410    -0.8240 ca         1 25G       0.294500
     20 N13          2.4670    -1.9150     0.1310 nb         1 25G      -0.693000
     21 C14          0.2880    -2.5250    -0.9280 c          1 25G       0.516600
     22 O15         -0.3850    -3.2150    -1.6930 o          1 25G      -0.578100
     23 N16         -0.2580    -1.5550    -0.0980 ns         1 25G      -0.146000
     24 C18         -1.8430     0.1470     0.6520 ca         1 25G      -0.110300
     25 C19         -2.6860    -2.0150    -0.0880 ca         1 25G      -0.113000
     26 C23         -0.7020     1.1380     0.9000 c3         1 25G       0.016200
     27 C25         -0.6340     3.3820    -2.2130 ca         1 25G      -0.108500
     28 C27          0.9820     1.4350    -0.9950 ca         1 25G      -0.104000
     29 C29          0.5870     3.0150    -2.8040 ca         1 25G      -0.107000
     30 C30         -5.6330     0.1460     0.9400 cc         1 25G       0.467000
     31 N31         -6.7740    -0.5790     0.7550 na         1 25G      -0.213700
     32 N32         -6.0040     1.3220     1.4060 nd         1 25G      -0.394000
     33 N33         -7.3770     1.2950     1.4990 nd         1 25G      -0.041000
     34 N34         -7.8640     0.1490     1.1080 nc         1 25G      -0.205800
     35 H101         4.4700    -4.2240    -2.3010 ha         1 25G       0.126000
     36 H201        -4.8140    -2.2970    -0.0190 ha         1 25G       0.108000
     37 H221        -3.3480     1.5610     1.2860 ha         1 25G       0.142000
     38 H261        -1.9950     3.0630    -0.5650 ha         1 25G       0.114500
     39 H281         2.3400     1.7550    -2.6490 ha         1 25G       0.112000
     40 H012         5.0520     2.8210    -1.2080 hc         1 25G       0.040700
     41 H011         3.5630     2.6990    -0.2780 hc         1 25G       0.040700
     42 H021         4.2910     0.4410    -1.0020 hc         1 25G       0.038450
     43 H022         5.8810     0.6680    -0.2810 hc         1 25G       0.038450
     44 H031         3.2090     0.5510     1.2500 hc         1 25G       0.053700
     45 H042         4.5500     0.7450     3.3300 hc         1 25G       0.038450
     46 H041         6.0410     0.8670     2.4020 hc         1 25G       0.038450
     47 H051         3.7140     2.8860     2.3860 hc         1 25G       0.040700
     48 H052         5.3010     3.1310     3.1090 hc         1 25G       0.040700
     49 H061         6.3970     3.0420     0.8760 hc         1 25G       0.039200
     50 H062         5.1230     4.2580     0.8620 hc         1 25G       0.039200
     51 H071         5.5550    -1.4080     1.3330 hc         1 25G       0.056700
     52 H072         4.0940    -1.5190     2.2780 hc         1 25G       0.056700
     53 H091         5.6500    -2.8700    -0.5480 ha         1 25G       0.127000
     54 H111         1.9750    -4.0600    -2.4630 ha         1 25G       0.150000
     55 H161         0.4350    -1.0460     0.4350 hn         1 25G       0.189000
     56 H191        -2.5250    -3.0250    -0.4540 ha         1 25G       0.137000
     57 H232         0.1380     0.6410     1.4010 hc         1 25G       0.057700
     58 H231        -1.0230     1.9150     1.6050 hc         1 25G       0.057700
     59 H251        -1.2610     4.1360    -2.6840 ha         1 25G       0.112000
     60 H271         1.6170     0.6850    -0.5330 ha         1 25G       0.114500
     61 H291         0.9060     3.4840    -3.7310 ha         1 25G       0.112000
     62 H1          -6.8430    -1.5260     0.4060 hn         1 25G       0.387000
@<TRIPOS>BOND
     1     1    17 ar  
     2     1    18 ar  
     3     1    35 1   
     4     2    23 1   
     5     2    24 ar  
     6     2    25 ar  
     7     3     4 ar  
     8     3    25 ar  
     9     3    36 1   
    10     4     5 ar  
    11     4    30 1   
    12     5    24 ar  
    13     5    37 1   
    14     6     7 ar  
    15     6    26 1   
    16     6    28 ar  
    17     7    27 ar  
    18     7    38 1   
    19     8    28 ar  
    20     8    29 ar  
    21     8    39 1   
    22     9    10 1   
    23     9    14 1   
    24     9    40 1   
    25     9    41 1   
    26    10    11 1   
    27    10    42 1   
    28    10    43 1   
    29    11    12 1   
    30    11    15 1   
    31    11    44 1   
    32    12    13 1   
    33    12    45 1   
    34    12    46 1   
    35    13    14 1   
    36    13    47 1   
    37    13    48 1   
    38    14    49 1   
    39    14    50 1   
    40    15    16 1   
    41    15    51 1   
    42    15    52 1   
    43    16    17 ar  
    44    16    20 ar  
    45    17    53 1   
    46    18    19 ar  
    47    18    54 1   
    48    19    20 ar  
    49    19    21 1   
    50    21    22 2   
    51    21    23 1   
    52    23    55 1   
    53    24    26 1   
    54    25    56 1   
    55    26    57 1   
    56    26    58 1   
    57    27    29 ar  
    58    27    59 1   
    59    28    60 1   
    60    29    61 1   
    61    30    31 1   
    62    30    32 2   
    63    31    34 1   
    64    31    62 1   
    65    32    33 1   
    66    33    34 2   
@<TRIPOS>SUBSTRUCTURE
     1 25G         1 TEMP              0 ****  ****    0 ROOT
