@<TRIPOS>MOLECULE
25I
   50    54     1     0     0
SMALL
No Charge or Current Charge


@<TRIPOS>ATOM
      1 C10          8.4120     3.1280   -11.0900 c6         1 25I       0.067700
      2 C13          7.0970     3.7600   -10.6910 cc         1 25I       0.409800
      3 C15          3.5660     4.1040    -9.9840 c3         1 25I       0.310700
      4 C17         13.6720     5.7510   -11.2190 ca         1 25I      -0.152000
      5 C20         17.4690     2.6260    -8.5840 ca         1 25I      -0.083000
      6 C21         17.6240     1.4760    -7.7960 ca         1 25I      -0.111000
      7 C22         16.8440     1.3090    -6.6420 ca         1 25I      -0.048000
      8 C01         15.0640     2.1280    -5.0390 c          1 25I       0.556600
      9 C02         15.9030     2.2930    -6.2730 ca         1 25I      -0.144600
     10 C03         15.7360     3.4580    -7.0620 ca         1 25I      -0.111900
     11 C04         14.7380     4.4800    -6.6590 cc         1 25I       0.370900
     12 C06         13.7860     5.4780    -8.8010 ca         1 25I      -0.099300
     13 C07         12.6030     4.7140    -8.8430 ca         1 25I      -0.036000
     14 C08         11.9360     4.4800   -10.0640 ca         1 25I      -0.191600
     15 C09         10.6870     3.6410   -10.0640 c          1 25I       0.628700
     16 C11          9.3000     5.4760   -11.1730 c6         1 25I       0.087000
     17 C12          8.1160     6.0290   -10.3350 c6         1 25I       0.065600
     18 C14          5.0720     4.2500   -10.2190 cd         1 25I       0.417300
     19 C16         12.4980     4.9850   -11.2560 ca         1 25I       0.193000
     20 C18         14.3110     6.0070    -9.9950 ca         1 25I      -0.065000
     21 C19         16.5340     3.6100    -8.2210 ca         1 25I      -0.102000
     22 F01          3.2200     4.4250    -8.7150 f          1 25I      -0.098667
     23 F02          3.1250     2.8400   -10.1980 f          1 25I      -0.098667
     24 F03          2.8470     4.9090   -10.8030 f          1 25I      -0.098667
     25 F04         11.9430     4.7080   -12.4570 f          1 25I      -0.172000
     26 N01          9.5890     4.0390   -10.8630 n          1 25I      -0.419800
     27 N02          6.9800     5.0900   -10.3680 na         1 25I      -0.038700
     28 N03          5.9020     3.2050   -10.6080 nd         1 25I      -0.645000
     29 N04          5.6980     5.4140   -10.0630 nc         1 25I      -0.475800
     30 N05         13.9990     4.3180    -5.5550 nd         1 25I      -0.428300
     31 N06         14.1910     3.1730    -4.8080 ns         1 25I      -0.236900
     32 O02         10.6530     2.5980    -9.4260 o          1 25I      -0.561100
     33 H1           8.5340     2.1850   -10.5420 h1         1 25I       0.094700
     34 H2           8.3740     2.8650   -12.1560 h1         1 25I       0.094700
     35 H3          14.0920     6.1380   -12.1440 ha         1 25I       0.140000
     36 H4          18.0740     2.7570    -9.4790 ha         1 25I       0.118000
     37 H5          18.3490     0.7160    -8.0790 ha         1 25I       0.123000
     38 H6          16.9720     0.4140    -6.0350 ha         1 25I       0.143000
     39 H7          15.4460     6.2470    -7.6260 hc         1 25I       0.069200
     40 H8          13.8870     6.4390    -6.8820 hc         1 25I       0.069200
     41 H9          12.1890     4.3090    -7.9210 ha         1 25I       0.140000
     42 H10         10.1760     6.1130   -10.9940 h1         1 25I       0.072700
     43 H11          9.0550     5.5620   -12.2420 h1         1 25I       0.072700
     44 H12          8.4330     6.1600    -9.2910 h1         1 25I       0.085200
     45 H13          7.8020     7.0080   -10.7220 h1         1 25I       0.085200
     46 H14         15.2210     6.6040    -9.9810 ha         1 25I       0.119000
     47 H15         16.4410     4.4880    -8.8540 ha         1 25I       0.116000
     48 H16         13.6260     3.0580    -3.9700 hn         1 25I       0.355500
     49 C05         14.4900     5.7340    -7.4680 c3         1 25I      -0.050400
     50 O01         15.1340     1.1610    -4.2920 o          1 25I      -0.536000
@<TRIPOS>BOND
     1     1     2 1   
     2     1    26 1   
     3     1    33 1   
     4     1    34 1   
     5     2    27 1   
     6     2    28 2   
     7     3    18 1   
     8     3    22 1   
     9     3    23 1   
    10     3    24 1   
    11     4    19 ar  
    12     4    20 ar  
    13     4    35 1   
    14     5     6 ar  
    15     5    21 ar  
    16     5    36 1   
    17     6     7 ar  
    18     6    37 1   
    19     7     9 ar  
    20     7    38 1   
    21     8     9 1   
    22     8    31 1   
    23     8    50 2   
    24     9    10 ar  
    25    10    11 1   
    26    10    21 ar  
    27    11    30 2   
    28    11    49 1   
    29    12    13 ar  
    30    12    20 ar  
    31    12    49 1   
    32    13    14 ar  
    33    13    41 1   
    34    14    15 1   
    35    14    19 ar  
    36    15    26 1   
    37    15    32 2   
    38    16    17 1   
    39    16    26 1   
    40    16    42 1   
    41    16    43 1   
    42    17    27 1   
    43    17    44 1   
    44    17    45 1   
    45    18    28 1   
    46    18    29 2   
    47    19    25 1   
    48    20    46 1   
    49    21    47 1   
    50    27    29 1   
    51    30    31 1   
    52    31    48 1   
    53    39    49 1   
    54    40    49 1   
@<TRIPOS>SUBSTRUCTURE
     1 25I         1 TEMP              0 ****  ****    0 ROOT
