@<TRIPOS>MOLECULE
25I
   50    54     1     0     0
SMALL
abcg2


@<TRIPOS>ATOM
      1 C10          8.1480     3.1130   -10.3310 c6         1 25I       0.067700
      2 C13          6.8970     3.9090   -10.4280 cc         1 25I       0.409800
      3 C15          3.4760     4.6180   -10.8320 c3         1 25I       0.310700
      4 C17         13.4980     5.2240   -11.2410 ca         1 25I      -0.152000
      5 C20         17.9260     3.1640    -8.4880 ca         1 25I      -0.083000
      6 C21         18.1980     2.0030    -7.7630 ca         1 25I      -0.111000
      7 C22         17.3580     1.6170    -6.7400 ca         1 25I      -0.048000
      8 C01         15.3530     1.9860    -5.3420 c          1 25I       0.556600
      9 C02         16.2370     2.3890    -6.4340 ca         1 25I      -0.144600
     10 C03         15.9540     3.5550    -7.1590 ca         1 25I      -0.111900
     11 C04         14.7800     4.3180    -6.7870 cc         1 25I       0.370900
     12 C06         13.6380     5.2040    -8.8250 ca         1 25I      -0.099300
     13 C07         12.4270     4.5190    -8.7790 ca         1 25I      -0.036000
     14 C08         11.7340     4.2030    -9.9400 ca         1 25I      -0.191600
     15 C09         10.4790     3.3870    -9.8720 c          1 25I       0.628700
     16 C11          9.2050     5.3500   -10.6990 c6         1 25I       0.087000
     17 C12          8.0370     6.0460   -10.0250 c6         1 25I       0.065600
     18 C14          4.9530     4.5890   -10.6170 cd         1 25I       0.417300
     19 C16         12.3000     4.5500   -11.1560 ca         1 25I       0.193000
     20 C18         14.1580     5.5540   -10.0650 ca         1 25I      -0.065000
     21 C19         16.8200     3.9330    -8.1930 ca         1 25I      -0.102000
     22 F01          2.8170     4.9110    -9.7050 f          1 25I      -0.098667
     23 F02          3.0340     3.4390   -11.2620 f          1 25I      -0.098667
     24 F03          3.1340     5.5420   -11.7330 f          1 25I      -0.098667
     25 F04         11.6470     4.2200   -12.2820 f          1 25I      -0.172000
     26 N01          9.3190     3.9750   -10.2440 n          1 25I      -0.419800
     27 N02          6.8660     5.2290   -10.2550 na         1 25I      -0.038700
     28 N03          5.6820     3.4620   -10.6630 nd         1 25I      -0.645000
     29 N04          5.6260     5.6870   -10.3740 nc         1 25I      -0.475800
     30 N05         14.0220     3.9590    -5.8120 nd         1 25I      -0.428300
     31 N06         14.3150     2.8450    -5.1350 ns         1 25I      -0.236900
     32 O02         10.5310     2.2310    -9.4900 o          1 25I      -0.561100
     33 H1           8.0890     2.4830    -9.4410 h1         1 25I       0.094700
     34 H2           8.2140     2.4440   -11.1940 h1         1 25I       0.094700
     35 H3          13.9100     5.4860   -12.2060 ha         1 25I       0.140000
     36 H4          18.5890     3.4670    -9.2870 ha         1 25I       0.118000
     37 H5          19.0690     1.4080    -8.0030 ha         1 25I       0.123000
     38 H6          17.5640     0.7210    -6.1700 ha         1 25I       0.143000
     39 H7          15.2060     6.1960    -7.7460 hc         1 25I       0.069200
     40 H8          13.6820     6.1150    -6.8910 hc         1 25I       0.069200
     41 H9          12.0040     4.2410    -7.8200 ha         1 25I       0.140000
     42 H10         10.1100     5.8960   -10.4490 h1         1 25I       0.072700
     43 H11          9.0740     5.3880   -11.7840 h1         1 25I       0.072700
     44 H12          8.2040     6.1620    -8.9540 h1         1 25I       0.085200
     45 H13          7.8750     7.0260   -10.4670 h1         1 25I       0.085200
     46 H14         15.0930     6.0970   -10.1260 ha         1 25I       0.119000
     47 H15         16.6370     4.8330    -8.7640 ha         1 25I       0.116000
     48 H16         13.6680     2.6350    -4.3860 hn         1 25I       0.355500
     49 C05         14.3530     5.5480    -7.5380 c3         1 25I      -0.050400
     50 O01         15.5010     0.9860    -4.6560 o          1 25I      -0.536000
@<TRIPOS>BOND
     1     1     2 1   
     2     1    26 1   
     3     1    33 1   
     4     1    34 1   
     5     2    27 1   
     6     2    28 2   
     7     3    18 1   
     8     3    22 1   
     9     3    23 1   
    10     3    24 1   
    11     4    19 ar  
    12     4    20 ar  
    13     4    35 1   
    14     5     6 ar  
    15     5    21 ar  
    16     5    36 1   
    17     6     7 ar  
    18     6    37 1   
    19     7     9 ar  
    20     7    38 1   
    21     8     9 1   
    22     8    31 1   
    23     8    50 2   
    24     9    10 ar  
    25    10    11 1   
    26    10    21 ar  
    27    11    30 2   
    28    11    49 1   
    29    12    13 ar  
    30    12    20 ar  
    31    12    49 1   
    32    13    14 ar  
    33    13    41 1   
    34    14    15 1   
    35    14    19 ar  
    36    15    26 1   
    37    15    32 2   
    38    16    17 1   
    39    16    26 1   
    40    16    42 1   
    41    16    43 1   
    42    17    27 1   
    43    17    44 1   
    44    17    45 1   
    45    18    28 1   
    46    18    29 2   
    47    19    25 1   
    48    20    46 1   
    49    21    47 1   
    50    27    29 1   
    51    30    31 1   
    52    31    48 1   
    53    39    49 1   
    54    40    49 1   
@<TRIPOS>SUBSTRUCTURE
     1 25I         1 TEMP              0 ****  ****    0 ROOT
