@<TRIPOS>MOLECULE
25J
   51    55     1     0     0
SMALL
No Charge or Current Charge


@<TRIPOS>ATOM
      1 C18         29.9630    50.3760     7.4280 ca         1 25J      -0.118000
      2 C17         29.9910    49.1230     8.0910 ca         1 25J      -0.079000
      3 C19         28.7600    50.8780     6.8840 ca         1 25J      -0.041000
      4 C10         34.3320    47.1720     8.7770 ca         1 25J      -0.073000
      5 C11         34.5460    47.0690    10.1610 ca         1 25J      -0.135000
      6 C3          29.8700    46.0690     8.5790 ca         1 25J      -0.109000
      7 C13         33.1620    45.0720    10.2230 ca         1 25J      -0.121000
      8 C14         32.7230    47.1430     4.9110 cc         1 25J       0.204400
      9 C15         33.5170    46.0140     4.6900 cc         1 25J       0.204400
     10 C1          27.9630    46.6490     9.9620 ca         1 25J       0.363900
     11 C4          28.8170    48.3350     8.2480 cp         1 25J      -0.010000
     12 C2          28.8710    47.0070     8.9290 cp         1 25J      -0.110000
     13 C21         27.6090    50.0950     7.0290 ca         1 25J      -0.159600
     14 C20         27.6440    48.8920     7.6900 ca         1 25J      -0.078300
     15 C8          32.9280    45.1640     8.8310 ca         1 25J      -0.078300
     16 C9          33.5300    46.2260     8.1030 ca         1 25J       0.011800
     17 C6          29.9170    44.8330     9.2570 ca         1 25J       0.024100
     18 C12         33.9620    46.0180    10.8780 ca         1 25J       0.177000
     19 C5          28.9370    44.6040    10.2580 ca         1 25J       0.587900
     20 C22         26.2270    50.3010     6.5340 c          1 25J       0.575600
     21 C23         26.2940    48.2150     7.6580 c5         1 25J       0.147300
     22 C16         32.7520    42.7730     7.9700 c3         1 25J      -0.085100
     23 C7          32.0270    44.1180     8.1500 c3         1 25J       0.227600
     24 N1          27.9850    45.4630    10.6140 nb         1 25J      -0.726000
     25 N3          32.5980    47.4020     6.1910 nd         1 25J      -0.488800
     26 N4          33.9410    45.4940     5.8180 nd         1 25J      -0.488800
     27 N2          33.3540    46.3670     6.7240 na         1 25J       0.309800
     28 N6          25.4820    49.1940     6.9020 ns         1 25J      -0.521900
     29 N5          28.8410    43.4750    10.9830 nv         1 25J      -1.048900
     30 O2          25.8030    51.2600     5.9090 o          1 25J      -0.551000
     31 O1          30.8710    43.8610     8.9730 os         1 25J      -0.364100
     32 F1          34.1690    45.9160    12.2090 f          1 25J      -0.172000
     33 H15         30.8800    50.9520     7.3270 ha         1 25J       0.121000
     34 H14         30.9350    48.7590     8.4900 ha         1 25J       0.120000
     35 H16         28.7320    51.8300     6.3580 ha         1 25J       0.136000
     36 H5          35.1650    47.8000    10.6770 ha         1 25J       0.143000
     37 H2          30.5720    46.3130     7.7890 ha         1 25J       0.129000
     38 H6          32.7170    44.2670    10.8030 ha         1 25J       0.154000
     39 H7          32.2390    47.7760     4.1800 h4         1 25J       0.057600
     40 H8          33.7950    45.5640     3.7470 h4         1 25J       0.057600
     41 H1          27.1980    47.3510    10.2900 h4         1 25J       0.020100
     42 H18         25.8940    48.0600     8.6670 h1         1 25J       0.061200
     43 H19         26.3510    47.2430     7.1490 h1         1 25J       0.061200
     44 H10         32.0960    42.0470     7.4770 hc         1 25J       0.055700
     45 H11         33.6470    42.9020     7.3510 hc         1 25J       0.055700
     46 H9          33.0610    42.3630     8.9390 hc         1 25J       0.055700
     47 H3          31.7060    44.4630     7.1590 h1         1 25J       0.065700
     48 H17         24.5000    49.1310     6.6600 hn         1 25J       0.333500
     49 H12         27.9520    43.3300    11.4440 hn         1 25J       0.478500
     50 H13         29.3110    42.6550    10.6150 hn         1 25J       0.478500
     51 H4          34.7900    47.9880     8.2210 ha         1 25J       0.141000
@<TRIPOS>BOND
     1     1     2 ar  
     2     1     3 ar  
     3     1    33 1   
     4     2    11 ar  
     5     2    34 1   
     6     3    13 ar  
     7     3    35 1   
     8     4     5 ar  
     9     4    16 ar  
    10     4    51 1   
    11     5    18 ar  
    12     5    36 1   
    13     6    12 ar  
    14     6    17 ar  
    15     6    37 1   
    16     7    15 ar  
    17     7    18 ar  
    18     7    38 1   
    19     8     9 1   
    20     8    25 2   
    21     8    39 1   
    22     9    26 2   
    23     9    40 1   
    24    10    12 ar  
    25    10    24 ar  
    26    10    41 1   
    27    11    12 1   
    28    11    14 ar  
    29    13    14 ar  
    30    13    20 1   
    31    14    21 1   
    32    15    16 ar  
    33    15    23 1   
    34    16    27 1   
    35    17    19 ar  
    36    17    31 1   
    37    18    32 1   
    38    19    24 ar  
    39    19    29 1   
    40    20    28 1   
    41    20    30 2   
    42    21    28 1   
    43    21    42 1   
    44    21    43 1   
    45    22    23 1   
    46    22    44 1   
    47    22    45 1   
    48    22    46 1   
    49    23    31 1   
    50    23    47 1   
    51    25    27 1   
    52    26    27 1   
    53    28    48 1   
    54    29    49 1   
    55    29    50 1   
@<TRIPOS>SUBSTRUCTURE
     1 25J         1 TEMP              0 ****  ****    0 ROOT
