@<TRIPOS>MOLECULE
25J
   51    55     1     0     0
SMALL
abcg2


@<TRIPOS>ATOM
      1 C18         30.0740    50.1540     7.3660 ca         1 25J      -0.118000
      2 C17         30.0300    48.9100     7.9930 ca         1 25J      -0.079000
      3 C19         28.9050    50.7620     6.9230 ca         1 25J      -0.041000
      4 C10         34.1180    47.3220     8.7340 ca         1 25J      -0.073000
      5 C11         34.2610    47.3310    10.1120 ca         1 25J      -0.135000
      6 C3          29.8880    45.9840     8.5530 ca         1 25J      -0.109000
      7 C13         33.0360    45.2420    10.2230 ca         1 25J      -0.121000
      8 C14         32.9700    47.1440     4.7760 cc         1 25J       0.204400
      9 C15         33.3740    45.8070     4.6620 cc         1 25J       0.204400
     10 C1          27.9210    46.4850     9.7970 ca         1 25J       0.363900
     11 C4          28.8270    48.2200     8.2130 cp         1 25J      -0.010000
     12 C2          28.8520    46.8890     8.8530 cp         1 25J      -0.110000
     13 C21         27.7130    50.0860     7.1350 ca         1 25J      -0.159600
     14 C20         27.6590    48.8480     7.7720 ca         1 25J      -0.078300
     15 C8          32.8700    45.2360     8.8390 ca         1 25J      -0.078300
     16 C9          33.4340    46.2840     8.1070 ca         1 25J       0.011800
     17 C6          29.9530    44.7740     9.2000 ca         1 25J       0.024100
     18 C12         33.7190    46.2770    10.8250 ca         1 25J       0.177000
     19 C5          28.9480    44.4540    10.1500 ca         1 25J       0.587900
     20 C22         26.3430    50.4780     6.7190 c          1 25J       0.575600
     21 C23         26.2270    48.3790     7.7990 c5         1 25J       0.147300
     22 C16         32.8420    42.8240     8.1000 c3         1 25J      -0.085100
     23 C7          32.0570    44.1200     8.2090 c3         1 25J       0.227600
     24 N1          27.9600    45.3000    10.4220 nb         1 25J      -0.726000
     25 N3          32.9310    47.4650     6.0660 nd         1 25J      -0.488800
     26 N4          33.5820    45.3250     5.8840 nd         1 25J      -0.488800
     27 N2          33.2990    46.3470     6.6910 na         1 25J       0.309800
     28 N6          25.5400    49.4520     7.0940 ns         1 25J      -0.521900
     29 N5          29.0160    43.2720    10.8400 nv         1 25J      -1.048900
     30 O2          25.9920    51.5100     6.1480 o          1 25J      -0.551000
     31 O1          30.9080    43.8170     9.0230 os         1 25J      -0.364100
     32 F1          33.8570    46.2650    12.1720 f          1 25J      -0.172000
     33 H15         31.0300    50.6410     7.2240 ha         1 25J       0.121000
     34 H14         30.9560    48.4640     8.3310 ha         1 25J       0.120000
     35 H16         28.9200    51.7210     6.4220 ha         1 25J       0.136000
     36 H5          34.7870    48.1280    10.6200 ha         1 25J       0.143000
     37 H2          30.6190    46.2520     7.8070 ha         1 25J       0.129000
     38 H6          32.6040    44.4570    10.8280 ha         1 25J       0.154000
     39 H7          32.7100    47.8580     4.0130 h4         1 25J       0.057600
     40 H8          33.5210    45.1970     3.7870 h4         1 25J       0.057600
     41 H1          27.1170    47.1440    10.0990 h4         1 25J       0.020100
     42 H18         25.8340    48.2780     8.8120 h1         1 25J       0.061200
     43 H19         26.1030    47.4170     7.2940 h1         1 25J       0.061200
     44 H10         32.2230    42.0520     7.6410 hc         1 25J       0.055700
     45 H11         33.7250    42.9820     7.4850 hc         1 25J       0.055700
     46 H9          33.1550    42.4890     9.0900 hc         1 25J       0.055700
     47 H3          31.7110    44.4210     7.2210 h1         1 25J       0.065700
     48 H17         24.5390    49.4750     6.9730 hn         1 25J       0.333500
     49 H12         28.1650    42.9790    11.2940 hn         1 25J       0.478500
     50 H13         29.5690    42.5350    10.4330 hn         1 25J       0.478500
     51 H4          34.5340    48.1190     8.1360 ha         1 25J       0.141000
@<TRIPOS>BOND
     1     1     2 ar  
     2     1     3 ar  
     3     1    33 1   
     4     2    11 ar  
     5     2    34 1   
     6     3    13 ar  
     7     3    35 1   
     8     4     5 ar  
     9     4    16 ar  
    10     4    51 1   
    11     5    18 ar  
    12     5    36 1   
    13     6    12 ar  
    14     6    17 ar  
    15     6    37 1   
    16     7    15 ar  
    17     7    18 ar  
    18     7    38 1   
    19     8     9 1   
    20     8    25 2   
    21     8    39 1   
    22     9    26 2   
    23     9    40 1   
    24    10    12 ar  
    25    10    24 ar  
    26    10    41 1   
    27    11    12 1   
    28    11    14 ar  
    29    13    14 ar  
    30    13    20 1   
    31    14    21 1   
    32    15    16 ar  
    33    15    23 1   
    34    16    27 1   
    35    17    19 ar  
    36    17    31 1   
    37    18    32 1   
    38    19    24 ar  
    39    19    29 1   
    40    20    28 1   
    41    20    30 2   
    42    21    28 1   
    43    21    42 1   
    44    21    43 1   
    45    22    23 1   
    46    22    44 1   
    47    22    45 1   
    48    22    46 1   
    49    23    31 1   
    50    23    47 1   
    51    25    27 1   
    52    26    27 1   
    53    28    48 1   
    54    29    49 1   
    55    29    50 1   
@<TRIPOS>SUBSTRUCTURE
     1 25J         1 TEMP              0 ****  ****    0 ROOT
