@<TRIPOS>MOLECULE
25K
   37    39     1     0     0
SMALL
bcc


@<TRIPOS>ATOM
      1 C10          1.5630     3.4830     0.9500 c3         1 25K      -0.151400
      2 C9           1.8860     2.0710     0.5740 cc         1 25K       0.512600
      3 C8           0.9250     1.0740     0.7630 cc         1 25K      -0.423300
      4 N1           3.0910     1.8410     0.0810 nd         1 25K      -0.686000
      5 C11          3.3620     0.5770    -0.2150 cd         1 25K       0.449500
      6 N4           2.4580    -0.4550    -0.0510 na         1 25K      -0.012800
      7 N3           3.0410    -1.6270    -0.3760 nd         1 25K      -0.625100
      8 C12          4.2420    -1.2450    -0.7390 cc         1 25K       0.548200
      9 N2           4.4980     0.0690    -0.6670 nc         1 25K      -0.399300
     10 C7           1.1970    -0.2520     0.4320 cd         1 25K       0.329300
     11 N            0.3330    -1.2670     0.5770 nh         1 25K      -0.674000
     12 C6           0.3830    -2.5220    -0.1680 c3         1 25K       0.222100
     13 C5          -0.8530    -1.0750     1.3870 c3         1 25K       0.269100
     14 C4          -2.0690    -0.5900     0.6320 ca         1 25K      -0.124300
     15 C3          -3.3020    -0.5760     1.2800 ca         1 25K      -0.117000
     16 C2          -4.4410    -0.1240     0.6350 ca         1 25K      -0.125500
     17 C13         -2.0120    -0.1430    -0.6810 ca         1 25K      -0.117000
     18 C14         -3.1570     0.3100    -1.3260 ca         1 25K      -0.125500
     19 C1          -4.3900     0.3280    -0.6840 ca         1 25K      -0.067300
     20 C           -5.6310     0.7900    -1.3910 c3         1 25K      -0.048800
     21 H1           1.9550     3.7000     1.9450 hc         1 25K       0.058700
     22 H2           2.0250     4.1830     0.2560 hc         1 25K       0.058700
     23 H3           0.4890     3.6620     0.9720 hc         1 25K       0.058700
     24 H4          -0.0520     1.3520     1.1240 ha         1 25K       0.160000
     25 H5           4.9730    -1.9690    -1.0680 h5         1 25K       0.068800
     26 H6           0.9740    -3.2800     0.3430 h1         1 25K       0.053700
     27 H7          -0.6380    -2.8850    -0.2660 h1         1 25K       0.053700
     28 H8           0.7780    -2.3810    -1.1690 h1         1 25K       0.053700
     29 H9          -1.0790    -2.0340     1.8590 h1         1 25K       0.066700
     30 H10         -0.6220    -0.3970     2.2110 h1         1 25K       0.066700
     31 H11         -3.3770    -0.9230     2.3050 ha         1 25K       0.132500
     32 H12         -5.3860    -0.1260     1.1670 ha         1 25K       0.132500
     33 H13         -1.0750    -0.1370    -1.2260 ha         1 25K       0.132500
     34 H14         -3.0820     0.6560    -2.3510 ha         1 25K       0.132500
     35 H15         -6.2030    -0.0580    -1.7720 hc         1 25K       0.044700
     36 H16         -6.2880     1.3470    -0.7240 hc         1 25K       0.044700
     37 H17         -5.3920     1.4280    -2.2410 hc         1 25K       0.044700
@<TRIPOS>BOND
     1     1     2 1   
     2     1    21 1   
     3     1    22 1   
     4     1    23 1   
     5     2     3 1   
     6     2     4 2   
     7     3    10 2   
     8     3    24 1   
     9     4     5 1   
    10     5     6 1   
    11     5     9 2   
    12     6     7 1   
    13     6    10 1   
    14     7     8 2   
    15     8     9 1   
    16     8    25 1   
    17    10    11 1   
    18    11    12 1   
    19    11    13 1   
    20    12    26 1   
    21    12    27 1   
    22    12    28 1   
    23    13    14 1   
    24    13    29 1   
    25    13    30 1   
    26    14    15 ar  
    27    14    17 ar  
    28    15    16 ar  
    29    15    31 1   
    30    16    19 ar  
    31    16    32 1   
    32    17    18 ar  
    33    17    33 1   
    34    18    19 ar  
    35    18    34 1   
    36    19    20 1   
    37    20    35 1   
    38    20    36 1   
    39    20    37 1   
@<TRIPOS>SUBSTRUCTURE
     1 25K         1 TEMP              0 ****  ****    0 ROOT
