@<TRIPOS>MOLECULE
25K
   37    39     1     0     0
SMALL
No Charge or Current Charge


@<TRIPOS>ATOM
      1 C10          2.0230     3.5610     0.6910 c3         1 25K      -0.151400
      2 C9           2.3040     2.1090     0.4300 cc         1 25K       0.447300
      3 C8           1.2020     1.2030     0.5980 cc         1 25K      -0.340000
      4 N1           3.5380     1.7700     0.0720 nd         1 25K      -0.686000
      5 C11          3.6000     0.4090    -0.1250 cd         1 25K       0.449500
      6 N4           2.6180    -0.5400    -0.0160 na         1 25K       0.037900
      7 N3           3.0900    -1.8150    -0.2280 nd         1 25K      -0.625100
      8 C12          4.3590    -1.5020    -0.4930 cc         1 25K       0.548200
      9 N2           4.7240    -0.1780    -0.4430 nc         1 25K      -0.399300
     10 C7           1.3200    -0.1550     0.3800 cd         1 25K       0.417000
     11 N            0.2510    -1.0720     0.5290 nh         1 25K      -0.812400
     12 C6           0.1730    -2.3430    -0.2350 c3         1 25K       0.222100
     13 C5          -0.9010    -0.7930     1.4210 c3         1 25K       0.269100
     14 C4          -2.2060    -0.4580     0.6940 ca         1 25K      -0.124300
     15 C3          -3.4270    -0.9670     1.1790 ca         1 25K      -0.099000
     16 C2          -4.6360    -0.6660     0.5270 ca         1 25K      -0.107500
     17 C13         -2.2170     0.3610    -0.4550 ca         1 25K      -0.099000
     18 C14         -3.4250     0.6620    -1.1060 ca         1 25K      -0.107500
     19 C1          -4.6420     0.1520    -0.6170 ca         1 25K      -0.067300
     20 C           -5.9500     0.4740    -1.3240 c3         1 25K      -0.048800
     21 H1           1.6870     3.7090     1.7230 hc         1 25K       0.058700
     22 H2           2.9130     4.1830     0.5340 hc         1 25K       0.058700
     23 H3           1.2360     3.9270     0.0210 hc         1 25K       0.058700
     24 H4           0.2520     1.6300     0.8900 ha         1 25K       0.142000
     25 H5           5.1180    -2.2360    -0.7360 h5         1 25K       0.068800
     26 H6           0.7440    -3.1340     0.2700 h1         1 25K       0.053700
     27 H7          -0.8670    -2.6850    -0.3300 h1         1 25K       0.053700
     28 H8           0.5720    -2.2130    -1.2500 h1         1 25K       0.053700
     29 H9          -1.0750    -1.6730     2.0560 h1         1 25K       0.066700
     30 H10         -0.6670     0.0260     2.1150 h1         1 25K       0.066700
     31 H11         -3.4430    -1.6000     2.0640 ha         1 25K       0.114500
     32 H12         -5.5690    -1.0700     0.9140 ha         1 25K       0.114500
     33 H13         -1.2870     0.7630    -0.8510 ha         1 25K       0.114500
     34 H14         -3.4150     1.2920    -1.9920 ha         1 25K       0.114500
     35 H15         -6.1710    -0.2730    -2.0950 hc         1 25K       0.044700
     36 H16         -6.7910     0.4910    -0.6210 hc         1 25K       0.044700
     37 H17         -5.9100     1.4560    -1.8120 hc         1 25K       0.044700
@<TRIPOS>BOND
     1     1     2 1   
     2     1    21 1   
     3     1    22 1   
     4     1    23 1   
     5     2     3 1   
     6     2     4 2   
     7     3    10 2   
     8     3    24 1   
     9     4     5 1   
    10     5     6 1   
    11     5     9 2   
    12     6     7 1   
    13     6    10 1   
    14     7     8 2   
    15     8     9 1   
    16     8    25 1   
    17    10    11 1   
    18    11    12 1   
    19    11    13 1   
    20    12    26 1   
    21    12    27 1   
    22    12    28 1   
    23    13    14 1   
    24    13    29 1   
    25    13    30 1   
    26    14    15 ar  
    27    14    17 ar  
    28    15    16 ar  
    29    15    31 1   
    30    16    19 ar  
    31    16    32 1   
    32    17    18 ar  
    33    17    33 1   
    34    18    19 ar  
    35    18    34 1   
    36    19    20 1   
    37    20    35 1   
    38    20    36 1   
    39    20    37 1   
@<TRIPOS>SUBSTRUCTURE
     1 25K         1 TEMP              0 ****  ****    0 ROOT
