@<TRIPOS>MOLECULE
25O
   28    30     1     0     0
SMALL
abcg2


@<TRIPOS>ATOM
      1 C4           1.5910     0.1400     0.0070 ca         1 25O      -0.067000
      2 C5           2.5030     0.8240     0.8130 ca         1 25O      -0.066500
      3 C6           3.8410     0.4620     0.8180 ca         1 25O      -0.118000
      4 C11         -2.0190    -2.0090     0.0140 cc         1 25O       0.746200
      5 C7           4.2830    -0.5780     0.0110 ca         1 25O      -0.087000
      6 C8           3.3810    -1.2550    -0.7990 ca         1 25O      -0.118000
      7 C9           2.0400    -0.9070    -0.7990 ca         1 25O      -0.066500
      8 C10         -2.1420     0.0780    -0.0150 cd         1 25O       0.441500
      9 N1          -2.5100     1.3540    -0.0170 nd         1 25O      -0.655000
     10 N2          -2.9090    -0.9970     0.0010 nc         1 25O      -0.429300
     11 C3           0.1900     0.5820    -0.0020 cd         1 25O       0.069000
     12 C1          -1.5500     2.2560    -0.0070 cc         1 25O       0.418300
     13 C           -1.9390     3.6990    -0.0110 c3         1 25O      -0.152400
     14 N4          -0.7410    -1.6570     0.0080 nd         1 25O      -0.664100
     15 N           -0.8210    -0.3140    -0.0140 na         1 25O       0.096900
     16 C2          -0.1860     1.9030    -0.0010 cc         1 25O      -0.243000
     17 H1           2.1630     1.6290     1.4520 ha         1 25O       0.124500
     18 H2           4.5350     0.9900     1.4580 ha         1 25O       0.118500
     19 H3           5.3280    -0.8600     0.0150 ha         1 25O       0.116000
     20 H4           3.7230    -2.0620    -1.4350 ha         1 25O       0.118500
     21 H5           1.3500    -1.4410    -1.4360 ha         1 25O       0.124500
     22 H6          -1.7250    -3.9910    -0.1980 hn         1 25O       0.476000
     23 H7          -3.3390    -3.5040    -0.2340 hn         1 25O       0.476000
     24 H8          -3.0200     3.8090    -0.0090 hc         1 25O       0.061033
     25 H9          -1.5330     4.2100     0.8640 hc         1 25O       0.061033
     26 H10         -1.5360     4.2050    -0.8900 hc         1 25O       0.061033
     27 H11          0.5720     2.6720    -0.0170 ha         1 25O       0.142000
     28 N3          -2.4060    -3.3060     0.0850 nv         1 25O      -0.986200
@<TRIPOS>BOND
     1     1     2 ar  
     2     1     7 ar  
     3     1    11 1   
     4     2     3 ar  
     5     2    17 1   
     6     3     5 ar  
     7     3    18 1   
     8     4    10 1   
     9     4    14 2   
    10     4    28 1   
    11     5     6 ar  
    12     5    19 1   
    13     6     7 ar  
    14     6    20 1   
    15     7    21 1   
    16     8     9 1   
    17     8    10 2   
    18     8    15 1   
    19     9    12 2   
    20    11    15 1   
    21    11    16 2   
    22    12    13 1   
    23    12    16 1   
    24    13    24 1   
    25    13    25 1   
    26    13    26 1   
    27    14    15 1   
    28    16    27 1   
    29    22    28 1   
    30    23    28 1   
@<TRIPOS>SUBSTRUCTURE
     1 25O         1 TEMP              0 ****  ****    0 ROOT
