@<TRIPOS>MOLECULE
25O
   28    30     1     0     0
SMALL
No Charge or Current Charge


@<TRIPOS>ATOM
      1 C4           1.6520     0.1260    -0.0310 ca         1 25O      -0.067000
      2 C5           2.6060     1.0170     0.5220 ca         1 25O      -0.066500
      3 C6           3.9720     0.6870     0.5660 ca         1 25O      -0.118000
      4 C11         -2.1060    -1.9740    -0.0950 cc         1 25O       0.746200
      5 C7           4.4200    -0.5360     0.0500 ca         1 25O      -0.087000
      6 C8           3.4970    -1.4280    -0.5120 ca         1 25O      -0.118000
      7 C9           2.1300    -1.1010    -0.5540 ca         1 25O      -0.066500
      8 C10         -2.1920     0.0670    -0.1050 cd         1 25O       0.441500
      9 N1          -2.6750     1.3510    -0.0190 nd         1 25O      -0.655000
     10 N2          -3.0010    -0.9600    -0.0980 nc         1 25O      -0.429300
     11 C3           0.2050     0.5010    -0.0740 cd         1 25O       0.069000
     12 C1          -1.6470     2.1890     0.0600 cc         1 25O       0.418300
     13 C           -1.9490     3.6560     0.1720 c3         1 25O      -0.152400
     14 N4          -0.8160    -1.7520    -0.0970 nd         1 25O      -0.664100
     15 N           -0.8870    -0.3880    -0.1420 na         1 25O       0.096900
     16 C2          -0.2510     1.8140     0.0570 cc         1 25O      -0.243000
     17 H1           2.3020     1.9650     0.9550 ha         1 25O       0.124500
     18 H2           4.6830     1.3830     1.0050 ha         1 25O       0.118500
     19 H3           5.4770    -0.7900     0.0830 ha         1 25O       0.116000
     20 H4           3.8400    -2.3740    -0.9260 ha         1 25O       0.118500
     21 H5           1.4610    -1.8050    -1.0370 ha         1 25O       0.124500
     22 H6          -1.8960    -3.9170    -0.3660 hn         1 25O       0.476000
     23 H7          -3.5170    -3.3390    -0.3990 hn         1 25O       0.476000
     24 H8          -3.0280     3.8520     0.1660 hc         1 25O       0.061033
     25 H9          -1.5400     4.0640     1.1030 hc         1 25O       0.061033
     26 H10         -1.5040     4.2070    -0.6650 hc         1 25O       0.061033
     27 H11          0.4530     2.6330     0.1230 ha         1 25O       0.142000
     28 N3          -2.5650    -3.2160    -0.0790 nv         1 25O      -0.986200
@<TRIPOS>BOND
     1     1     2 ar  
     2     1     7 ar  
     3     1    11 1   
     4     2     3 ar  
     5     2    17 1   
     6     3     5 ar  
     7     3    18 1   
     8     4    10 1   
     9     4    14 2   
    10     4    28 1   
    11     5     6 ar  
    12     5    19 1   
    13     6     7 ar  
    14     6    20 1   
    15     7    21 1   
    16     8     9 1   
    17     8    10 2   
    18     8    15 1   
    19     9    12 2   
    20    11    15 1   
    21    11    16 2   
    22    12    13 1   
    23    12    16 1   
    24    13    24 1   
    25    13    25 1   
    26    13    26 1   
    27    14    15 1   
    28    16    27 1   
    29    22    28 1   
    30    23    28 1   
@<TRIPOS>SUBSTRUCTURE
     1 25O         1 TEMP              0 ****  ****    0 ROOT
