@<TRIPOS>MOLECULE
25P
   50    52     1     0     0
SMALL
abcg2


@<TRIPOS>ATOM
      1 CAD         -4.8560     0.5160    -0.3280 ca         1 25P      -0.157500
      2 CAC         -5.9530     0.6120    -1.1760 ca         1 25P      -0.071000
      3 CAB         -7.1390    -0.0160    -0.8430 ca         1 25P       0.080000
      4 CLAG        -8.5060     0.1060    -1.9050 cl         1 25P      -0.216000
      5 CAA         -7.2470    -0.7450     0.3330 ca         1 25P      -0.071000
      6 CAF         -6.1560    -0.8430     1.1780 ca         1 25P      -0.157500
      7 CAE         -4.9580    -0.2120     0.8510 ca         1 25P       0.146100
      8 OAH         -3.9440    -0.3540     1.7430 os         1 25P      -0.244200
      9 CAI         -2.7030     0.1530     1.4310 ca         1 25P       0.034100
     10 CAN         -2.3490     1.4220     1.8690 ca         1 25P      -0.077000
     11 CAM         -1.0850     1.9150     1.5990 ca         1 25P      -0.170000
     12 CAJ         -1.7990    -0.6150     0.7200 ca         1 25P      -0.077000
     13 CAK         -0.5280    -0.1250     0.4460 ca         1 25P      -0.170000
     14 CAL         -0.1630     1.1470     0.8840 ca         1 25P       0.162100
     15 OAO          1.0410     1.7080     0.6700 os         1 25P      -0.343100
     16 CAP          2.0570     0.9450     0.0420 c3         1 25P       0.121600
     17 CAQ          3.3260     1.7980     0.0290 c5         1 25P       0.196500
     18 CAR          3.2310     2.9610    -0.9530 c5         1 25P      -0.075400
     19 CAS          3.6100     2.3200    -2.2940 c5         1 25P      -0.091400
     20 CAT          4.4680     1.0990    -1.9160 c5         1 25P       0.177800
     21 NAU          4.4980     1.0970    -0.4600 n3         1 25P      -0.745600
     22 CAV          4.8320    -0.1610     0.1690 c3         1 25P       0.175800
     23 CAW          6.2860    -0.5630    -0.0420 c3         1 25P      -0.055400
     24 CAX          6.6170    -1.8520     0.6930 c3         1 25P      -0.207400
     25 CAY          8.0660    -2.3550     0.5640 c          1 25P       0.718000
     26 OBA          8.8580    -1.6870    -0.1300 o          1 25P      -0.740000
     27 OAZ          8.3320    -3.4100     1.1790 o          1 25P      -0.740000
     28 HAD         -3.9380     1.0160    -0.6050 ha         1 25P       0.132500
     29 HAC         -5.8700     1.1820    -2.0910 ha         1 25P       0.126000
     30 HAA         -8.1740    -1.2380     0.5920 ha         1 25P       0.126000
     31 HAF         -6.2340    -1.4110     2.0960 ha         1 25P       0.132500
     32 HAN         -3.0540     2.0220     2.4300 ha         1 25P       0.125500
     33 HAM         -0.8030     2.9010     1.9450 ha         1 25P       0.129500
     34 HAJ         -2.0750    -1.6050     0.3780 ha         1 25P       0.125500
     35 HAK          0.1580    -0.7490    -0.1090 ha         1 25P       0.129500
     36 HAP          2.2250     0.0160     0.5990 h1         1 25P       0.041700
     37 HAPA         1.7560     0.6670    -0.9760 h1         1 25P       0.041700
     38 HAQ          3.5100     2.1400     1.0540 h1         1 25P       0.074700
     39 HAR          2.2490     3.4330    -0.9710 hc         1 25P       0.049700
     40 HARA         3.9560     3.7280    -0.6730 hc         1 25P       0.049700
     41 HAS          2.7180     2.0040    -2.8360 hc         1 25P       0.036200
     42 HASA         4.1430     3.0150    -2.9420 hc         1 25P       0.036200
     43 HAT          4.0290     0.1740    -2.3210 h1         1 25P       0.040700
     44 HATA         5.4810     1.1630    -2.3210 h1         1 25P       0.040700
     45 HAV          4.6470    -0.0580     1.2440 h1         1 25P       0.017200
     46 HAVA         4.1830    -0.9840    -0.1790 h1         1 25P       0.017200
     47 HAW          6.4890    -0.6850    -1.1090 hc         1 25P       0.047700
     48 HAWA         6.9310     0.2480     0.3050 hc         1 25P       0.047700
     49 HAX          6.3940    -1.7330     1.7600 hc         1 25P       0.014700
     50 HAXA         5.9490    -2.6530     0.3560 hc         1 25P       0.014700
@<TRIPOS>BOND
     1     1     2 ar  
     2     1     7 ar  
     3     1    28 1   
     4     2     3 ar  
     5     2    29 1   
     6     3     4 1   
     7     3     5 ar  
     8     5     6 ar  
     9     5    30 1   
    10     6     7 ar  
    11     6    31 1   
    12     7     8 1   
    13     8     9 1   
    14     9    10 ar  
    15     9    12 ar  
    16    10    11 ar  
    17    10    32 1   
    18    11    14 ar  
    19    11    33 1   
    20    12    13 ar  
    21    12    34 1   
    22    13    14 ar  
    23    13    35 1   
    24    14    15 1   
    25    15    16 1   
    26    16    17 1   
    27    16    36 1   
    28    16    37 1   
    29    17    18 1   
    30    17    21 1   
    31    17    38 1   
    32    18    19 1   
    33    18    39 1   
    34    18    40 1   
    35    19    20 1   
    36    19    41 1   
    37    19    42 1   
    38    20    21 1   
    39    20    43 1   
    40    20    44 1   
    41    21    22 1   
    42    22    23 1   
    43    22    45 1   
    44    22    46 1   
    45    23    24 1   
    46    23    47 1   
    47    23    48 1   
    48    24    25 1   
    49    24    49 1   
    50    24    50 1   
    51    25    26 1   
    52    25    27 1   
@<TRIPOS>SUBSTRUCTURE
     1 25P         1 TEMP              0 ****  ****    0 ROOT
