@<TRIPOS>MOLECULE
25P
   50    52     1     0     0
SMALL
No Charge or Current Charge


@<TRIPOS>ATOM
      1 CAD         -4.9160     0.4200    -0.6690 ca         1 25P      -0.157500
      2 CAC         -5.7270    -0.1970    -1.6390 ca         1 25P      -0.071000
      3 CAB         -6.7070    -1.1250    -1.2460 ca         1 25P       0.080000
      4 ClAG        -7.7220    -1.8950    -2.4590 cl         1 25P      -0.216000
      5 CAA         -6.8820    -1.4340     0.1140 ca         1 25P      -0.071000
      6 CAF         -6.0710    -0.8170     1.0840 ca         1 25P      -0.157500
      7 CAE         -5.0810     0.1010     0.6940 ca         1 25P       0.146100
      8 OAH         -4.3100     0.7000     1.6640 os         1 25P      -0.244200
      9 CAI         -2.9710     0.9770     1.4920 ca         1 25P       0.034100
     10 CAN         -2.4470     2.1620     2.0330 ca         1 25P      -0.077000
     11 CAM         -1.0810     2.4600     1.8810 ca         1 25P      -0.170000
     12 CAJ         -2.1220     0.0770     0.8170 ca         1 25P      -0.077000
     13 CAK         -0.7550     0.3760     0.6660 ca         1 25P      -0.170000
     14 CAL         -0.2310     1.5750     1.1980 ca         1 25P       0.162100
     15 OAO          1.0990     1.9210     1.0800 os         1 25P      -0.343100
     16 CAP          2.0510     1.0890     0.3910 c3         1 25P       0.121600
     17 CAQ          3.4470     1.7870     0.4450 c5         1 25P       0.196500
     18 CAR          3.5310     3.1220    -0.3420 c5         1 25P      -0.075400
     19 CAS          3.7080     2.6460    -1.8160 c5         1 25P      -0.091400
     20 CAT          4.2920     1.2060    -1.6840 c5         1 25P       0.177800
     21 NAU          4.5690     1.0750    -0.2290 n3         1 25P      -0.745600
     22 CAV          4.8800    -0.2850     0.2650 c3         1 25P       0.175800
     23 CAW          6.1680    -0.8950    -0.3340 c3         1 25P      -0.055400
     24 CAX          6.5190    -2.2810     0.2620 c3         1 25P      -0.207400
     25 CAY          7.8080    -2.8220    -0.3820 c          1 25P       0.718000
     26 OBA          7.7080    -3.4820    -1.4050 o          1 25P      -0.740000
     27 OAZ          8.8760    -2.5280     0.1310 o          1 25P      -0.740000
     28 HAD         -4.1660     1.1460    -0.9760 ha         1 25P       0.132500
     29 HAC         -5.6000     0.0460    -2.6910 ha         1 25P       0.126000
     30 HAA         -7.6450    -2.1490     0.4140 ha         1 25P       0.126000
     31 HAF         -6.2050    -1.0530     2.1360 ha         1 25P       0.132500
     32 HAN         -3.0990     2.8510     2.5650 ha         1 25P       0.125500
     33 HAM         -0.6770     3.3810     2.2950 ha         1 25P       0.129500
     34 HAJ         -2.5170    -0.8530     0.4150 ha         1 25P       0.125500
     35 HAK         -0.1230    -0.3330     0.1390 ha         1 25P       0.129500
     36 HAP          2.1210     0.1090     0.8790 h1         1 25P       0.041700
     37 HAPA         1.7440     0.9370    -0.6520 h1         1 25P       0.041700
     38 HAQ          3.6780     1.9580     1.5060 h1         1 25P       0.074700
     39 HAR          2.6480     3.7560    -0.2060 hc         1 25P       0.049700
     40 HARA         4.3980     3.7080    -0.0150 hc         1 25P       0.049700
     41 HAS          2.7520     2.6290    -2.3520 hc         1 25P       0.036200
     42 HASA         4.3780     3.3100    -2.3730 hc         1 25P       0.036200
     43 HAT          3.5610     0.4570    -2.0220 h1         1 25P       0.040700
     44 HATA         5.2010     1.0810    -2.2880 h1         1 25P       0.040700
     45 HAV          4.9970    -0.2490     1.3570 h1         1 25P       0.017200
     46 HAVA         4.0420    -0.9620     0.0510 h1         1 25P       0.017200
     47 HAW          6.0530    -0.9940    -1.4200 hc         1 25P       0.047700
     48 HAWA         7.0020    -0.2050    -0.1600 hc         1 25P       0.047700
     49 HAX          6.6650    -2.1180     1.3370 hc         1 25P       0.014700
     50 HAXA         5.6680    -2.9330     0.0260 hc         1 25P       0.014700
@<TRIPOS>BOND
     1     1     2 ar  
     2     1     7 ar  
     3     1    28 1   
     4     2     3 ar  
     5     2    29 1   
     6     3     4 1   
     7     3     5 ar  
     8     5     6 ar  
     9     5    30 1   
    10     6     7 ar  
    11     6    31 1   
    12     7     8 1   
    13     8     9 1   
    14     9    10 ar  
    15     9    12 ar  
    16    10    11 ar  
    17    10    32 1   
    18    11    14 ar  
    19    11    33 1   
    20    12    13 ar  
    21    12    34 1   
    22    13    14 ar  
    23    13    35 1   
    24    14    15 1   
    25    15    16 1   
    26    16    17 1   
    27    16    36 1   
    28    16    37 1   
    29    17    18 1   
    30    17    21 1   
    31    17    38 1   
    32    18    19 1   
    33    18    39 1   
    34    18    40 1   
    35    19    20 1   
    36    19    41 1   
    37    19    42 1   
    38    20    21 1   
    39    20    43 1   
    40    20    44 1   
    41    21    22 1   
    42    22    23 1   
    43    22    45 1   
    44    22    46 1   
    45    23    24 1   
    46    23    47 1   
    47    23    48 1   
    48    24    25 1   
    49    24    49 1   
    50    24    50 1   
    51    25    26 1   
    52    25    27 1   
@<TRIPOS>SUBSTRUCTURE
     1 25P         1 TEMP              0 ****  ****    0 ROOT
