@<TRIPOS>MOLECULE
25Q
   40    43     1     0     0
SMALL
No Charge or Current Charge


@<TRIPOS>ATOM
      1 C1           4.9290     2.7800    -0.0130 ca         1 25Q      -0.110000
      2 C2           3.9250     3.7360     0.1960 ca         1 25Q      -0.107000
      3 C3           2.5900     3.3290     0.3560 ca         1 25Q      -0.081000
      4 C4           2.2360     1.9680     0.3100 ca         1 25Q       0.227000
      5 C5           3.2690     0.9840     0.0950 ca         1 25Q       0.227000
      6 C6           4.5990     1.4150    -0.0630 ca         1 25Q      -0.073000
      7 O23          3.0110    -3.3320    -0.2340 o          1 25Q      -0.574100
      8 N24          1.1050    -4.3560     0.2240 nt         1 25Q      -0.607000
      9 C9           1.1010    -1.9720     0.1760 cc         1 25Q      -0.457000
     10 C10         -0.2600    -1.7710     0.3040 cd         1 25Q       0.311900
     11 N21         -1.2800    -2.6680     0.2000 nv         1 25Q      -0.966000
     12 N11         -0.5250    -0.4030     0.5370 na         1 25Q      -0.169200
     13 C12          0.6730     0.2790     0.4100 ca         1 25Q       0.366500
     14 N13          0.9280     1.6140     0.4700 nb         1 25Q      -0.645000
     15 C8           1.6820    -0.6600     0.2050 ca         1 25Q       0.417800
     16 N7           2.9880    -0.3480     0.0400 nb         1 25Q      -0.597000
     17 C14         -1.7500     0.0620     0.0550 ca         1 25Q       0.028800
     18 C19         -1.9270     0.3320    -1.3150 ca         1 25Q      -0.126000
     19 C18         -3.1640     0.8010    -1.7870 ca         1 25Q      -0.065000
     20 C17         -4.2290     1.0050    -0.8920 ca         1 25Q      -0.192000
     21 C16         -4.0550     0.7400     0.4840 ca         1 25Q       0.148100
     22 C15         -2.8160     0.2710     0.9480 ca         1 25Q      -0.152000
     23 O30         -5.0620     0.9240     1.4090 os         1 25Q      -0.338100
     24 C35         -6.3680     1.4030     1.0380 c3         1 25Q       0.147900
     25 H1           5.9630     3.0950    -0.1380 ha         1 25Q       0.116000
     26 H2           4.1790     4.7940     0.2340 ha         1 25Q       0.115000
     27 H3           1.8180     4.0770     0.5180 ha         1 25Q       0.127000
     28 H4           5.3830     0.6800    -0.2260 ha         1 25Q       0.135000
     29 H5           1.5570    -5.2550     0.1610 hn         1 25Q       0.291500
     30 H6           0.1550    -4.2730     0.5530 hn         1 25Q       0.291500
     31 H7          -1.1970    -3.3890    -0.5120 hn         1 25Q       0.504500
     32 H8          -2.2250    -2.3040     0.2930 hn         1 25Q       0.504500
     33 H9          -1.1090     0.1770    -2.0150 ha         1 25Q       0.137000
     34 H10         -3.2980     1.0070    -2.8480 ha         1 25Q       0.121000
     35 H11         -5.1750     1.3690    -1.2830 ha         1 25Q       0.122000
     36 H12         -2.6840     0.0710     2.0080 ha         1 25Q       0.142000
     37 H13         -6.3030     2.3990     0.5830 h1         1 25Q       0.044367
     38 H14         -6.8460     0.7190     0.3250 h1         1 25Q       0.044367
     39 H15         -7.0120     1.4750     1.9230 h1         1 25Q       0.044367
     40 C22          1.8260    -3.2390     0.0250 c          1 25Q       0.640300
@<TRIPOS>BOND
     1     1     2 ar  
     2     1     6 ar  
     3     1    25 1   
     4     2     3 ar  
     5     2    26 1   
     6     3     4 ar  
     7     3    27 1   
     8     4     5 ar  
     9     4    14 ar  
    10     5     6 ar  
    11     5    16 ar  
    12     6    28 1   
    13     7    40 2   
    14     8    29 1   
    15     8    30 1   
    16     8    40 1   
    17     9    10 2   
    18     9    15 1   
    19     9    40 1   
    20    10    11 1   
    21    10    12 1   
    22    11    31 1   
    23    11    32 1   
    24    12    13 1   
    25    12    17 1   
    26    13    14 ar  
    27    13    15 ar  
    28    15    16 ar  
    29    17    18 ar  
    30    17    22 ar  
    31    18    19 ar  
    32    18    33 1   
    33    19    20 ar  
    34    19    34 1   
    35    20    21 ar  
    36    20    35 1   
    37    21    22 ar  
    38    21    23 1   
    39    22    36 1   
    40    23    24 1   
    41    24    37 1   
    42    24    38 1   
    43    24    39 1   
@<TRIPOS>SUBSTRUCTURE
     1 25Q         1 TEMP              0 ****  ****    0 ROOT
