@<TRIPOS>MOLECULE
25R
   16    16     1     0     0
SMALL
No Charge or Current Charge


@<TRIPOS>ATOM
      1 N1          -0.7510     1.2240    -0.0350 nb         1 25R      -0.640000
      2 C2          -1.3630     0.0090    -0.0230 ca         1 25R       0.299300
      3 C3          -0.6260    -1.2110     0.0040 ca         1 25R       0.293400
      4 N4           0.7370    -1.2430     0.0190 nb         1 25R      -0.640000
      5 C5           1.3490    -0.0280     0.0070 ca         1 25R       0.299300
      6 C6           0.6110     1.1920    -0.0200 ca         1 25R       0.293400
      7 C7          -2.8820     0.0260    -0.0390 c3         1 25R      -0.139400
      8 C8           2.8680    -0.0450     0.0230 c3         1 25R      -0.139400
      9 H3          -1.1350    -2.1740     0.0140 h4         1 25R       0.027100
     10 H6           1.1210     2.1550    -0.0300 h4         1 25R       0.027100
     11 H7          -3.2580     0.5290    -0.9370 hc         1 25R       0.053033
     12 H7A         -3.2950    -0.9890    -0.0270 hc         1 25R       0.053033
     13 H7B         -3.2770     0.5560     0.8360 hc         1 25R       0.053033
     14 H8           3.2630    -0.5750    -0.8520 hc         1 25R       0.053033
     15 H8A          3.2800     0.9710     0.0110 hc         1 25R       0.053033
     16 H8B          3.2440    -0.5480     0.9210 hc         1 25R       0.053033
@<TRIPOS>BOND
     1     1     2 ar  
     2     1     6 ar  
     3     2     3 ar  
     4     2     7 1   
     5     3     4 ar  
     6     3     9 1   
     7     4     5 ar  
     8     5     6 ar  
     9     5     8 1   
    10     6    10 1   
    11     7    11 1   
    12     7    12 1   
    13     7    13 1   
    14     8    14 1   
    15     8    15 1   
    16     8    16 1   
@<TRIPOS>SUBSTRUCTURE
     1 25R         1 TEMP              0 ****  ****    0 ROOT
