@<TRIPOS>MOLECULE
25R
   16    16     1     0     0
SMALL
abcg2


@<TRIPOS>ATOM
      1 N1          -0.7150     1.1770    -0.0250 nb         1 25R      -0.640000
      2 C2          -1.3540     0.0110    -0.0160 ca         1 25R       0.299300
      3 C3          -0.6230    -1.1740     0.0130 ca         1 25R       0.293400
      4 N4           0.7000    -1.1960     0.0260 nb         1 25R      -0.640000
      5 C5           1.3400    -0.0300     0.0130 ca         1 25R       0.299300
      6 C6           0.6090     1.1550    -0.0100 ca         1 25R       0.293400
      7 C7          -2.8490     0.0180    -0.0430 c3         1 25R      -0.139400
      8 C8           2.8350    -0.0370     0.0170 c3         1 25R      -0.139400
      9 H3          -1.1320    -2.1320     0.0290 h4         1 25R       0.027100
     10 H6           1.1180     2.1140    -0.0130 h4         1 25R       0.027100
     11 H7          -3.2160     0.3460    -1.0170 hc         1 25R       0.053033
     12 H7A         -3.2560    -0.9720     0.1520 hc         1 25R       0.053033
     13 H7B         -3.2470     0.7070     0.7020 hc         1 25R       0.053033
     14 H8           3.2220    -0.3950    -0.9380 hc         1 25R       0.053033
     15 H8A          3.2370     0.9590     0.1900 hc         1 25R       0.053033
     16 H8B          3.2170    -0.7020     0.7920 hc         1 25R       0.053033
@<TRIPOS>BOND
     1     1     2 ar  
     2     1     6 ar  
     3     2     3 ar  
     4     2     7 1   
     5     3     4 ar  
     6     3     9 1   
     7     4     5 ar  
     8     5     6 ar  
     9     5     8 1   
    10     6    10 1   
    11     7    11 1   
    12     7    12 1   
    13     7    13 1   
    14     8    14 1   
    15     8    15 1   
    16     8    16 1   
@<TRIPOS>SUBSTRUCTURE
     1 25R         1 TEMP              0 ****  ****    0 ROOT
