@<TRIPOS>MOLECULE
25S
   73    78     1     0     0
SMALL
No Charge or Current Charge


@<TRIPOS>ATOM
      1 O1           4.2110    -2.6160    -1.1680 o          1 25S      -0.562100
      2 C5           4.9200    -1.7200    -0.7180 c          1 25S       0.601100
      3 N1           6.2940    -1.8330    -0.5410 ns         1 25S      -0.138000
      4 C4           7.2060    -2.8900    -0.8070 ca         1 25S       0.024000
      5 C3           8.5630    -2.6980    -0.4970 ca         1 25S      -0.208500
      6 C2           9.4880    -3.7230    -0.7490 ca         1 25S       0.356900
      7 N            9.1370    -4.9130    -1.2850 nb         1 25S      -0.685000
      8 C1           7.8330    -5.1050    -1.5860 ca         1 25S       0.356900
      9 C            6.8450    -4.1320    -1.3660 ca         1 25S      -0.208500
     10 C6           4.3410    -0.3430    -0.2840 c3         1 25S       0.043700
     11 C24          4.7380     0.7720    -1.2870 c3         1 25S      -0.010200
     12 C25          4.2260     2.1380    -0.9080 cc         1 25S      -0.152400
     13 C28          4.7130     2.9740     0.1540 ca         1 25S      -0.092800
     14 C29          5.7570     2.7680     1.0670 ca         1 25S      -0.064000
     15 C30          6.0140     3.7790     2.0160 ca         1 25S      -0.134000
     16 C31          5.2330     4.9590     2.0320 ca         1 25S      -0.088000
     17 C32          4.1900     5.1350     1.0970 ca         1 25S      -0.126000
     18 C27          3.9580     4.1130     0.1660 ca         1 25S      -0.046200
     19 N5           3.0000     4.0770    -0.8300 na         1 25S      -0.221700
     20 C26          3.1780     2.8400    -1.4960 cd         1 25S      -0.158100
     21 N2           2.8650    -0.4140    -0.1470 ns         1 25S      -0.489900
     22 C7           2.1340     0.1340     0.8860 c          1 25S       0.631700
     23 O            2.6870     0.6350     1.8540 o          1 25S      -0.588100
     24 C8           0.6310     0.0850     0.7240 ca         1 25S      -0.238600
     25 C23         -0.2280     0.3270     1.8200 ca         1 25S       0.270000
     26 F2           0.2580     0.5760     3.0570 f          1 25S      -0.154000
     27 C22         -1.6200     0.2900     1.6680 ca         1 25S      -0.239000
     28 C11         -2.1960     0.0160     0.4240 ca         1 25S       0.370000
     29 C10         -1.3550    -0.2230    -0.6740 ca         1 25S      -0.216000
     30 C9           0.0410    -0.1890    -0.5330 ca         1 25S      -0.023000
     31 N3          -3.6010    -0.0160     0.3010 nh         1 25S      -0.798400
     32 C21         -4.2710    -0.8370    -0.7590 c6         1 25S       0.202800
     33 C20         -5.7530    -1.1910    -0.4070 c6         1 25S       0.184800
     34 N4          -6.5630     0.0090    -0.0180 nh         1 25S      -0.778400
     35 C13         -5.8920     0.8320     1.0390 c6         1 25S       0.184800
     36 C12         -4.4100     1.1860     0.6850 c6         1 25S       0.202800
     37 C14         -7.9720     0.0150    -0.1280 ca         1 25S       0.304000
     38 C19         -8.6540     1.2350    -0.3070 ca         1 25S      -0.142000
     39 C18        -10.0570     1.2680    -0.4200 ca         1 25S      -0.097000
     40 C17        -10.7880     0.0720    -0.3540 ca         1 25S       0.100000
     41 F1         -12.1360     0.1040    -0.4630 f          1 25S      -0.162000
     42 C16        -10.1140    -1.1510    -0.1770 ca         1 25S       0.165000
     43 F          -10.8100    -2.3090    -0.1110 f          1 25S      -0.162000
     44 C15         -8.7150    -1.1800    -0.0660 ca         1 25S      -0.194000
     45 H1           6.7320    -1.0080    -0.1520 hn         1 25S       0.155000
     46 H6           4.7820    -0.1090     0.6930 h1         1 25S       0.071700
     47 H3           8.9090    -1.7630    -0.0640 ha         1 25S       0.136000
     48 H            5.8230    -4.3690    -1.6380 ha         1 25S       0.136000
     49 H2          10.5430    -3.5890    -0.5140 h4         1 25S       0.017100
     50 HA           7.5730    -6.0700    -2.0180 h4         1 25S       0.017100
     51 H241         5.8310     0.8140    -1.3740 hc         1 25S       0.063200
     52 H242         4.3640     0.5060    -2.2840 hc         1 25S       0.063200
     53 HB           2.3410    -0.8760    -0.8780 hn         1 25S       0.327500
     54 H26          2.5450     2.5460    -2.3300 h4         1 25S       0.213000
     55 H29          6.3530     1.8580     1.0460 ha         1 25S       0.109000
     56 H30          6.8170     3.6510     2.7390 ha         1 25S       0.114000
     57 H31          5.4380     5.7350     2.7670 ha         1 25S       0.113000
     58 H32          3.5850     6.0390     1.1010 ha         1 25S       0.115000
     59 H5           2.3110     4.7930    -1.0410 hn         1 25S       0.352000
     60 H9           0.6470    -0.3590    -1.4200 ha         1 25S       0.117000
     61 H22         -2.2530     0.4620     2.5310 ha         1 25S       0.135000
     62 H10         -1.7780    -0.4220    -1.6540 ha         1 25S       0.117000
     63 H211        -4.2610    -0.2900    -1.7130 h1         1 25S       0.053200
     64 H212        -3.7230    -1.7780    -0.9160 h1         1 25S       0.053200
     65 H121        -3.9640     1.6990     1.5490 h1         1 25S       0.053200
     66 H122        -4.4140     1.9050    -0.1470 h1         1 25S       0.053200
     67 H201        -6.2020    -1.6880    -1.2800 h1         1 25S       0.050950
     68 H202        -5.7510    -1.9190     0.4170 h1         1 25S       0.050950
     69 H131        -6.4370     1.7710     1.2100 h1         1 25S       0.050950
     70 H132        -5.8990     0.2800     1.9900 h1         1 25S       0.050950
     71 H19         -8.0920     2.1620    -0.3700 ha         1 25S       0.125000
     72 H15         -8.2190    -2.1340     0.0820 ha         1 25S       0.134000
     73 H18        -10.5740     2.2140    -0.5600 ha         1 25S       0.135000
@<TRIPOS>BOND
     1     1     2 2   
     2     2     3 1   
     3     2    10 1   
     4     3     4 1   
     5     3    45 1   
     6     4     5 ar  
     7     4     9 ar  
     8     5     6 ar  
     9     5    47 1   
    10     6     7 ar  
    11     6    49 1   
    12     7     8 ar  
    13     8     9 ar  
    14     8    50 1   
    15     9    48 1   
    16    10    11 1   
    17    10    21 1   
    18    10    46 1   
    19    11    12 1   
    20    11    51 1   
    21    11    52 1   
    22    12    13 1   
    23    12    20 2   
    24    13    14 ar  
    25    13    18 ar  
    26    14    15 ar  
    27    14    55 1   
    28    15    16 ar  
    29    15    56 1   
    30    16    17 ar  
    31    16    57 1   
    32    17    18 ar  
    33    17    58 1   
    34    18    19 1   
    35    19    20 1   
    36    19    59 1   
    37    20    54 1   
    38    21    22 1   
    39    21    53 1   
    40    22    23 2   
    41    22    24 1   
    42    24    25 ar  
    43    24    30 ar  
    44    25    26 1   
    45    25    27 ar  
    46    27    28 ar  
    47    27    61 1   
    48    28    29 ar  
    49    28    31 1   
    50    29    30 ar  
    51    29    62 1   
    52    30    60 1   
    53    31    32 1   
    54    31    36 1   
    55    32    33 1   
    56    32    63 1   
    57    32    64 1   
    58    33    34 1   
    59    33    67 1   
    60    33    68 1   
    61    34    35 1   
    62    34    37 1   
    63    35    36 1   
    64    35    69 1   
    65    35    70 1   
    66    36    65 1   
    67    36    66 1   
    68    37    38 ar  
    69    37    44 ar  
    70    38    39 ar  
    71    38    71 1   
    72    39    40 ar  
    73    39    73 1   
    74    40    41 1   
    75    40    42 ar  
    76    42    43 1   
    77    42    44 ar  
    78    44    72 1   
@<TRIPOS>SUBSTRUCTURE
     1 25S         1 TEMP              0 ****  ****    0 ROOT
