@<TRIPOS>MOLECULE
25S
   73    78     1     0     0
SMALL
abcg2


@<TRIPOS>ATOM
      1 O1           4.3400    -2.4610    -1.0620 o          1 25S      -0.562100
      2 C5           4.8550    -1.5480    -0.4560 c          1 25S       0.601100
      3 N1           5.9850    -1.6570     0.2930 ns         1 25S      -0.138000
      4 C4           6.7820    -2.7700     0.5140 ca         1 25S       0.024000
      5 C3           7.8760    -2.6200     1.3700 ca         1 25S      -0.208500
      6 C2           8.6970    -3.7040     1.6110 ca         1 25S       0.356900
      7 N            8.5140    -4.9060     1.0720 nb         1 25S      -0.685000
      8 C1           7.4730    -5.0390     0.2610 ca         1 25S       0.356900
      9 C            6.5800    -4.0270    -0.0560 ca         1 25S      -0.208500
     10 C6           4.3100    -0.1220    -0.5380 c3         1 25S       0.043700
     11 C24          4.7800     0.5160    -1.8580 c3         1 25S      -0.010200
     12 C25          4.2730     1.9070    -2.0230 cc         1 25S      -0.152400
     13 C28          4.6730     3.0640    -1.2800 ca         1 25S      -0.092800
     14 C29          5.6250     3.2930    -0.2790 ca         1 25S      -0.064000
     15 C30          5.7620     4.5680     0.2340 ca         1 25S      -0.134000
     16 C31          4.9660     5.6260    -0.2350 ca         1 25S      -0.088000
     17 C32          4.0230     5.4320    -1.2260 ca         1 25S      -0.126000
     18 C27          3.8880     4.1440    -1.7400 ca         1 25S      -0.046200
     19 N5           3.0600     3.6600    -2.7110 na         1 25S      -0.221700
     20 C26          3.2910     2.3250    -2.8780 cd         1 25S      -0.158100
     21 N2           2.8780    -0.1330    -0.4880 ns         1 25S      -0.489900
     22 C7           2.2240    -0.6090     0.5900 c          1 25S       0.631700
     23 O            2.8250    -1.0820     1.5430 o          1 25S      -0.588100
     24 C8           0.7470    -0.4880     0.5350 ca         1 25S      -0.238600
     25 C23         -0.0940    -1.4470     1.0900 ca         1 25S       0.270000
     26 F2           0.4380    -2.5500     1.6290 f          1 25S      -0.154000
     27 C22         -1.4640    -1.3510     1.0800 ca         1 25S      -0.239000
     28 C11         -2.0960    -0.2330     0.5050 ca         1 25S       0.370000
     29 C10         -1.2610     0.7590    -0.0410 ca         1 25S      -0.216000
     30 C9           0.1120     0.6160    -0.0320 ca         1 25S      -0.023000
     31 N3          -3.4680    -0.1450     0.4610 nh         1 25S      -0.798400
     32 C21         -4.0950     1.0200    -0.1290 c6         1 25S       0.202800
     33 C20         -5.5210     0.7270    -0.5620 c6         1 25S       0.184800
     34 N4          -6.3030     0.1890     0.5280 nh         1 25S      -0.778400
     35 C13         -5.6780    -1.0050     1.0750 c6         1 25S       0.184800
     36 C12         -4.2660    -0.7130     1.5350 c6         1 25S       0.202800
     37 C14         -7.6900     0.1710     0.3890 ca         1 25S       0.304000
     38 C19         -8.5010    -0.2270     1.4620 ca         1 25S      -0.142000
     39 C18         -9.8800    -0.2280     1.3580 ca         1 25S      -0.097000
     40 C17        -10.4870     0.1780     0.1860 ca         1 25S       0.100000
     41 F1         -11.8230     0.1950     0.0710 f          1 25S      -0.162000
     42 C16         -9.7010     0.5760    -0.8750 ca         1 25S       0.165000
     43 F          -10.2890     0.9610    -2.0140 f          1 25S      -0.162000
     44 C15         -8.3230     0.5680    -0.7940 ca         1 25S      -0.194000
     45 H1           6.2720    -0.8270     0.7920 hn         1 25S       0.155000
     46 H6           4.6980     0.4700     0.2980 h1         1 25S       0.071700
     47 H3           8.0860    -1.6690     1.8440 ha         1 25S       0.136000
     48 H            5.7610    -4.2320    -0.7250 ha         1 25S       0.136000
     49 H2           9.5460    -3.5900     2.2740 h4         1 25S       0.017100
     50 HA           7.3240    -6.0200    -0.1770 h4         1 25S       0.017100
     51 H241         5.8730     0.4970    -1.8740 hc         1 25S       0.063200
     52 H242         4.4460    -0.1070    -2.6920 hc         1 25S       0.063200
     53 HB           2.3650     0.1200    -1.3170 hn         1 25S       0.327500
     54 H26          2.7370     1.7580    -3.6110 h4         1 25S       0.213000
     55 H29          6.2500     2.4880     0.0870 ha         1 25S       0.109000
     56 H30          6.4930     4.7580     1.0090 ha         1 25S       0.114000
     57 H31          5.0940     6.6140     0.1880 ha         1 25S       0.113000
     58 H32          3.4120     6.2500    -1.5860 ha         1 25S       0.115000
     59 H5           2.3890     4.1980    -3.2320 hn         1 25S       0.352000
     60 H9           0.7060     1.4230    -0.4450 ha         1 25S       0.117000
     61 H22         -2.0250    -2.1740     1.4990 ha         1 25S       0.135000
     62 H10         -1.6680     1.6670    -0.4590 ha         1 25S       0.117000
     63 H211        -4.0860     1.8710     0.5670 h1         1 25S       0.053200
     64 H212        -3.5550     1.3210    -1.0250 h1         1 25S       0.053200
     65 H121        -3.8390    -1.6500     1.8800 h1         1 25S       0.053200
     66 H122        -4.2920    -0.0270     2.3920 h1         1 25S       0.053200
     67 H201        -5.9500     1.6730    -0.8940 h1         1 25S       0.050950
     68 H202        -5.5050     0.0470    -1.4270 h1         1 25S       0.050950
     69 H131        -6.2360    -1.3670     1.9350 h1         1 25S       0.050950
     70 H132        -5.6610    -1.8120     0.3280 h1         1 25S       0.050950
     71 H19         -8.0600    -0.5210     2.4040 ha         1 25S       0.125000
     72 H15         -7.7680     0.8660    -1.6730 ha         1 25S       0.134000
     73 H18        -10.4890    -0.5330     2.1990 ha         1 25S       0.135000
@<TRIPOS>BOND
     1     1     2 2   
     2     2     3 1   
     3     2    10 1   
     4     3     4 1   
     5     3    45 1   
     6     4     5 ar  
     7     4     9 ar  
     8     5     6 ar  
     9     5    47 1   
    10     6     7 ar  
    11     6    49 1   
    12     7     8 ar  
    13     8     9 ar  
    14     8    50 1   
    15     9    48 1   
    16    10    11 1   
    17    10    21 1   
    18    10    46 1   
    19    11    12 1   
    20    11    51 1   
    21    11    52 1   
    22    12    13 1   
    23    12    20 2   
    24    13    14 ar  
    25    13    18 ar  
    26    14    15 ar  
    27    14    55 1   
    28    15    16 ar  
    29    15    56 1   
    30    16    17 ar  
    31    16    57 1   
    32    17    18 ar  
    33    17    58 1   
    34    18    19 1   
    35    19    20 1   
    36    19    59 1   
    37    20    54 1   
    38    21    22 1   
    39    21    53 1   
    40    22    23 2   
    41    22    24 1   
    42    24    25 ar  
    43    24    30 ar  
    44    25    26 1   
    45    25    27 ar  
    46    27    28 ar  
    47    27    61 1   
    48    28    29 ar  
    49    28    31 1   
    50    29    30 ar  
    51    29    62 1   
    52    30    60 1   
    53    31    32 1   
    54    31    36 1   
    55    32    33 1   
    56    32    63 1   
    57    32    64 1   
    58    33    34 1   
    59    33    67 1   
    60    33    68 1   
    61    34    35 1   
    62    34    37 1   
    63    35    36 1   
    64    35    69 1   
    65    35    70 1   
    66    36    65 1   
    67    36    66 1   
    68    37    38 ar  
    69    37    44 ar  
    70    38    39 ar  
    71    38    71 1   
    72    39    40 ar  
    73    39    73 1   
    74    40    41 1   
    75    40    42 ar  
    76    42    43 1   
    77    42    44 ar  
    78    44    72 1   
@<TRIPOS>SUBSTRUCTURE
     1 25S         1 TEMP              0 ****  ****    0 ROOT
