@<TRIPOS>MOLECULE
25T
   14    14     1     0     0
SMALL
No Charge or Current Charge


@<TRIPOS>ATOM
      1 S1           0.0830     1.1120     0.2650 ss         1 25T       0.328000
      2 C2          -1.1730    -0.0830     0.0550 cc         1 25T       0.042500
      3 N3          -0.7090    -1.3660    -0.1730 na         1 25T      -0.193700
      4 C4           0.6890    -1.4280    -0.1850 cc         1 25T      -0.110000
      5 C5           1.2520    -0.1830     0.0350 cd         1 25T      -0.170300
      6 N           -2.5240     0.1710     0.1010 nv         1 25T      -0.464800
      7 CM           2.7260     0.1290     0.0880 c3         1 25T      -0.037800
      8 HN3         -1.3120    -2.1710    -0.3150 hn         1 25T       0.392000
      9 H4           1.1960    -2.3740    -0.3530 h4         1 25T       0.206000
     10 HN1         -2.8720     1.1100     0.2680 hn         1 25T       0.381500
     11 HN2         -3.2060    -0.5680    -0.0290 hn         1 25T       0.381500
     12 HM1          3.0050     0.8570    -0.6830 hc         1 25T       0.081367
     13 HM2          3.0070     0.5480     1.0620 hc         1 25T       0.081367
     14 HM3          3.3320    -0.7710    -0.0720 hc         1 25T       0.081367
@<TRIPOS>BOND
     1     1     2 1   
     2     1     5 1   
     3     2     3 2   
     4     2     6 1   
     5     3     4 1   
     6     3     8 1   
     7     4     5 2   
     8     4     9 1   
     9     5     7 1   
    10     6    10 1   
    11     6    11 1   
    12     7    12 1   
    13     7    13 1   
    14     7    14 1   
@<TRIPOS>SUBSTRUCTURE
     1 25T         1 TEMP              0 ****  ****    0 ROOT
