@<TRIPOS>MOLECULE
25T
   14    14     1     0     0
SMALL
abcg2


@<TRIPOS>ATOM
      1 S1           0.0530     1.0320     0.2490 ss         1 25T       0.328000
      2 C2          -1.2070    -0.1200     0.0480 cc         1 25T       0.042500
      3 N3          -0.7000    -1.3270    -0.1630 na         1 25T      -0.193700
      4 C4           0.6830    -1.3910    -0.1750 cc         1 25T      -0.110000
      5 C5           1.2740    -0.2080     0.0320 cd         1 25T      -0.170300
      6 N           -2.4890     0.1630     0.0970 nv         1 25T      -0.464800
      7 CM           2.7180     0.1310     0.0880 c3         1 25T      -0.037800
      8 HN3         -1.2800    -2.1440    -0.3050 hn         1 25T       0.392000
      9 H4           1.1590    -2.3420    -0.3440 h4         1 25T       0.206000
     10 HN1         -2.8140     1.1000     0.2690 hn         1 25T       0.381500
     11 HN2         -3.1880    -0.5510    -0.0350 hn         1 25T       0.381500
     12 HM1          2.9850     0.8630    -0.6750 hc         1 25T       0.081367
     13 HM2          2.9930     0.5430     1.0590 hc         1 25T       0.081367
     14 HM3          3.3100    -0.7660    -0.0820 hc         1 25T       0.081367
@<TRIPOS>BOND
     1     1     2 1   
     2     1     5 1   
     3     2     3 2   
     4     2     6 1   
     5     3     4 1   
     6     3     8 1   
     7     4     5 2   
     8     4     9 1   
     9     5     7 1   
    10     6    10 1   
    11     6    11 1   
    12     7    12 1   
    13     7    13 1   
    14     7    14 1   
@<TRIPOS>SUBSTRUCTURE
     1 25T         1 TEMP              0 ****  ****    0 ROOT
