@<TRIPOS>MOLECULE
25U
   43    45     1     0     0
SMALL
No Charge or Current Charge


@<TRIPOS>ATOM
      1 CAA          4.8150     2.2400    -1.6420 c3         1 25U      -0.083100
      2 CAO          4.2640     0.8490    -2.0170 c3         1 25U      -0.135700
      3 C4           4.1090    -0.0710    -0.8050 ca         1 25U       0.223300
      4 N3           5.1160    -0.9460    -0.6020 nb         1 25U      -0.294000
      5 C2           4.9980    -1.7560     0.4540 ca         1 25U       0.431900
      6 NAD          6.0090    -2.6290     0.6510 nv         1 25U      -1.065900
      7 N1           4.0060    -1.8070     1.3430 nb         1 25U      -0.342000
      8 C6           3.0110    -0.9380     1.1450 ca         1 25U       0.444900
      9 NAE          2.0140    -1.0130     2.0650 nv         1 25U      -1.071900
     10 C5           2.9970    -0.0260     0.0710 ca         1 25U      -0.224000
     11 CAF          1.9100     0.8990    -0.1250 cg         1 25U      -0.070000
     12 CAG          0.9890     1.6720    -0.2930 c1         1 25U      -0.175100
     13 CBB         -0.1560     2.5730    -0.4750 c3         1 25U       0.067000
     14 CAY         -1.3730     2.0590     0.2870 ca         1 25U      -0.079300
     15 CAN         -2.2480     1.1330    -0.3150 ca         1 25U      -0.094000
     16 CAM         -1.6270     2.4980     1.5990 ca         1 25U      -0.093000
     17 CAV         -2.7440     2.0170     2.2990 ca         1 25U      -0.108000
     18 CAL         -3.6120     1.0940     1.6930 ca         1 25U      -0.097000
     19 CAX         -3.3830     0.6320     0.3720 cp         1 25U      -0.036000
     20 CAW         -4.3070    -0.3530    -0.2750 cp         1 25U      -0.135000
     21 CAJ         -4.4960    -0.4060    -1.6810 ca         1 25U       0.112400
     22 NAO         -5.3270    -1.2910    -2.2680 nb         1 25U      -0.170500
     23 CAI         -5.9810    -2.1380    -1.4470 ca         1 25U       0.115900
     24 NAP         -5.8860    -2.1880    -0.1030 nb         1 25U      -0.170500
     25 CAK         -5.0540    -1.2980     0.4760 ca         1 25U       0.112400
     26 H1           4.9210     2.8640    -2.5380 hc         1 25U       0.038033
     27 H2           4.1410     2.7530    -0.9450 hc         1 25U       0.038033
     28 H3           5.7990     2.1510    -1.1680 hc         1 25U       0.038033
     29 H4           3.3030     0.9680    -2.5320 hc         1 25U       0.060200
     30 H5           4.9380     0.3940    -2.7540 hc         1 25U       0.060200
     31 H6           6.8820    -2.4690     0.1540 hn         1 25U       0.498500
     32 H7           6.0780    -3.0890     1.5560 hn         1 25U       0.498500
     33 H8           1.9640    -1.8440     2.6470 hn         1 25U       0.499500
     34 H9           1.1370    -0.5460     1.8540 hn         1 25U       0.499500
     35 H10          0.1220     3.5780    -0.1330 hc         1 25U       0.063700
     36 H11         -0.3780     2.6590    -1.5450 hc         1 25U       0.063700
     37 H12         -2.0320     0.7880    -1.3220 ha         1 25U       0.119000
     38 H13         -0.9580     3.2100     2.0780 ha         1 25U       0.119000
     39 H14         -2.9390     2.3610     3.3130 ha         1 25U       0.118000
     40 H15         -4.4780     0.7460     2.2510 ha         1 25U       0.117000
     41 H16         -3.9820     0.2820    -2.3500 h4         1 25U       0.027100
     42 H17         -6.6520    -2.8550    -1.9180 h5         1 25U       0.052100
     43 H18         -4.9750    -1.3540     1.5600 h4         1 25U       0.027100
@<TRIPOS>BOND
     1     1     2 1   
     2     1    26 1   
     3     1    27 1   
     4     1    28 1   
     5     2     3 1   
     6     2    29 1   
     7     2    30 1   
     8     3     4 ar  
     9     3    10 ar  
    10     4     5 ar  
    11     5     6 1   
    12     5     7 ar  
    13     6    31 1   
    14     6    32 1   
    15     7     8 ar  
    16     8     9 1   
    17     8    10 ar  
    18     9    33 1   
    19     9    34 1   
    20    10    11 1   
    21    11    12 3   
    22    12    13 1   
    23    13    14 1   
    24    13    35 1   
    25    13    36 1   
    26    14    15 ar  
    27    14    16 ar  
    28    15    19 ar  
    29    15    37 1   
    30    16    17 ar  
    31    16    38 1   
    32    17    18 ar  
    33    17    39 1   
    34    18    19 ar  
    35    18    40 1   
    36    19    20 1   
    37    20    21 ar  
    38    20    25 ar  
    39    21    22 ar  
    40    21    41 1   
    41    22    23 ar  
    42    23    24 ar  
    43    23    42 1   
    44    24    25 ar  
    45    25    43 1   
@<TRIPOS>SUBSTRUCTURE
     1 25U         1 TEMP              0 ****  ****    0 ROOT
