@<TRIPOS>MOLECULE
25U
   43    45     1     0     0
SMALL
bcc


@<TRIPOS>ATOM
      1 CAA          5.1350     2.3100    -0.9610 c3         1 25U      -0.083100
      2 CAO          4.4900     1.1530    -1.7240 c3         1 25U      -0.135700
      3 C4           4.1050     0.0420    -0.7960 ca         1 25U       0.551600
      4 N3           5.0420    -0.8580    -0.5240 nb         1 25U      -0.820000
      5 C2           4.7150    -1.8290     0.3350 ca         1 25U       0.957900
      6 NAD          5.6560    -2.7560     0.5890 nv         1 25U      -0.955500
      7 N1           3.5380    -1.9840     0.9420 nb         1 25U      -0.868000
      8 C6           2.5980    -1.0870     0.6730 ca         1 25U       0.773200
      9 NAE          1.4160    -1.2190     1.2880 nv         1 25U      -0.961500
     10 C5           2.8370    -0.0090    -0.2210 ca         1 25U      -0.354600
     11 CAF          1.8160     0.9390    -0.4800 cg         1 25U      -0.070000
     12 CAG          0.8990     1.7050    -0.6490 c1         1 25U      -0.175100
     13 CBB         -0.2350     2.6060    -0.8230 c3         1 25U       0.067000
     14 CAY         -1.3990     2.1610     0.0340 ca         1 25U      -0.079300
     15 CAN         -2.2080     1.1120    -0.3860 ca         1 25U      -0.112000
     16 CAM         -1.6500     2.7630     1.2600 ca         1 25U      -0.111000
     17 CAV         -2.7010     2.3210     2.0530 ca         1 25U      -0.126000
     18 CAL         -3.5070     1.2770     1.6280 ca         1 25U      -0.115000
     19 CAX         -3.2670     0.6600     0.4000 cp         1 25U      -0.036000
     20 CAW         -4.1160    -0.4480    -0.0630 cp         1 25U      -0.265600
     21 CAJ         -4.4860    -0.5990    -1.3960 ca         1 25U       0.440700
     22 NAO         -5.2460    -1.5980    -1.8200 nb         1 25U      -0.696500
     23 CAI         -5.6560    -2.4630    -0.9050 ca         1 25U       0.641900
     24 NAP         -5.3730    -2.4230     0.3880 nb         1 25U      -0.696500
     25 CAK         -4.6070    -1.4240     0.8000 ca         1 25U       0.440700
     26 H1           5.4370     3.0990    -1.6500 hc         1 25U       0.038033
     27 H2           4.4420     2.7450    -0.2400 hc         1 25U       0.038033
     28 H3           6.0220     1.9790    -0.4200 hc         1 25U       0.038033
     29 H4           3.6130     1.5150    -2.2630 hc         1 25U       0.060200
     30 H5           5.1920     0.7630    -2.4620 hc         1 25U       0.060200
     31 H6           6.5970    -2.6010     0.2750 hn         1 25U       0.443300
     32 H7           5.5130    -3.4170     1.3320 hn         1 25U       0.443300
     33 H8           1.2280    -2.0470     1.8260 hn         1 25U       0.444300
     34 H9           0.6340    -0.6420     1.0300 hn         1 25U       0.444300
     35 H10          0.0560     3.6250    -0.5580 hc         1 25U       0.063700
     36 H11         -0.5310     2.6300    -1.8750 hc         1 25U       0.063700
     37 H12         -1.9950     0.6290    -1.3330 ha         1 25U       0.137000
     38 H13         -1.0260     3.5800     1.5990 ha         1 25U       0.137000
     39 H14         -2.8990     2.7980     3.0030 ha         1 25U       0.136000
     40 H15         -4.3370     0.9560     2.2440 ha         1 25U       0.135000
     41 H16         -4.1680     0.1200    -2.1440 h4         1 25U       0.027100
     42 H17         -6.2800    -3.2810    -1.2460 h5         1 25U       0.052100
     43 H18         -4.3590    -1.4030     1.8560 h4         1 25U       0.027100
@<TRIPOS>BOND
     1     1     2 1   
     2     1    26 1   
     3     1    27 1   
     4     1    28 1   
     5     2     3 1   
     6     2    29 1   
     7     2    30 1   
     8     3     4 ar  
     9     3    10 ar  
    10     4     5 ar  
    11     5     6 1   
    12     5     7 ar  
    13     6    31 1   
    14     6    32 1   
    15     7     8 ar  
    16     8     9 1   
    17     8    10 ar  
    18     9    33 1   
    19     9    34 1   
    20    10    11 1   
    21    11    12 3   
    22    12    13 1   
    23    13    14 1   
    24    13    35 1   
    25    13    36 1   
    26    14    15 ar  
    27    14    16 ar  
    28    15    19 ar  
    29    15    37 1   
    30    16    17 ar  
    31    16    38 1   
    32    17    18 ar  
    33    17    39 1   
    34    18    19 ar  
    35    18    40 1   
    36    19    20 1   
    37    20    21 ar  
    38    20    25 ar  
    39    21    22 ar  
    40    21    41 1   
    41    22    23 ar  
    42    23    24 ar  
    43    23    42 1   
    44    24    25 ar  
    45    25    43 1   
@<TRIPOS>SUBSTRUCTURE
     1 25U         1 TEMP              0 ****  ****    0 ROOT
