@<TRIPOS>MOLECULE
25V
   38    40     1     0     0
SMALL
No Charge or Current Charge


@<TRIPOS>ATOM
      1 O1           3.5470     2.0400    -1.3990 o          1 25V      -0.579100
      2 C1           4.4370     1.2910    -1.0130 c          1 25V       0.608100
      3 C            5.8970     1.5380    -1.3840 c3         1 25V      -0.182100
      4 N            4.2380     0.1700    -0.2170 ns         1 25V      -0.149000
      5 C2           3.0680    -0.4160     0.3410 ca         1 25V      -0.016000
      6 C17          3.2360    -1.5580     1.1450 ca         1 25V      -0.165000
      7 C16          2.1290    -2.1890     1.7350 ca         1 25V      -0.082000
      8 C15          0.8390    -1.6840     1.5190 ca         1 25V      -0.126000
      9 C4           0.6340    -0.5470     0.7040 cp         1 25V      -0.011000
     10 C3           1.7640     0.0830     0.1290 ca         1 25V      -0.124000
     11 C5          -0.7350     0.0080     0.4860 cp         1 25V      -0.042000
     12 C14         -1.7860    -0.7330    -0.1300 ca         1 25V      -0.006000
     13 C13         -1.5600    -2.0380    -0.6260 ca         1 25V      -0.107000
     14 C12         -2.5920    -2.7670    -1.2370 ca         1 25V      -0.089000
     15 C11         -3.8660    -2.2010    -1.3680 ca         1 25V      -0.115000
     16 C10         -4.1080    -0.9030    -0.8940 ca         1 25V      -0.063000
     17 C9          -3.0760    -0.1540    -0.2750 ca         1 25V      -0.130000
     18 N1          -3.3190     1.1520     0.1910 na         1 25V       0.458300
     19 O           -4.4610     1.6400     0.1240 o          1 25V      -0.521000
     20 C7          -2.2760     1.9020     0.7510 ca         1 25V      -0.130600
     21 C8          -2.5280     3.3380     1.2140 c3         1 25V      -0.031800
     22 C6          -1.0020     1.3300     0.9040 ca         1 25V      -0.077000
     23 H1           6.0290     2.4270    -2.0100 hc         1 25V       0.064700
     24 H2           6.4930     1.5960    -0.4660 hc         1 25V       0.064700
     25 H3           6.2990     0.6390    -1.8660 hc         1 25V       0.064700
     26 H4           5.0890    -0.3270     0.0100 hn         1 25V       0.149000
     27 H5           4.2320    -1.9590     1.3210 ha         1 25V       0.110000
     28 H6           2.2720    -3.0680     2.3610 ha         1 25V       0.116000
     29 H7          -0.0140    -2.1720     1.9860 ha         1 25V       0.123000
     30 H8           1.5940     0.9590    -0.4880 ha         1 25V       0.153000
     31 H9          -0.5790    -2.5000    -0.5570 ha         1 25V       0.128000
     32 H10         -2.4010    -3.7700    -1.6120 ha         1 25V       0.119000
     33 H11         -4.6660    -2.7650    -1.8420 ha         1 25V       0.121000
     34 H12         -5.1050    -0.4820    -1.0150 ha         1 25V       0.156000
     35 H14         -3.2660     3.3660     2.0250 hc         1 25V       0.058367
     36 H15         -1.6130     3.8150     1.5860 hc         1 25V       0.058367
     37 H16         -2.9090     3.9570     0.3930 hc         1 25V       0.058367
     38 H17         -0.2020     1.9090     1.3630 ha         1 25V       0.137000
@<TRIPOS>BOND
     1     1     2 2   
     2     2     3 1   
     3     2     4 1   
     4     3    23 1   
     5     3    24 1   
     6     3    25 1   
     7     4     5 1   
     8     4    26 1   
     9     5     6 ar  
    10     5    10 ar  
    11     6     7 ar  
    12     6    27 1   
    13     7     8 ar  
    14     7    28 1   
    15     8     9 ar  
    16     8    29 1   
    17     9    10 ar  
    18     9    11 1   
    19    10    30 1   
    20    11    12 ar  
    21    11    22 ar  
    22    12    13 ar  
    23    12    17 ar  
    24    13    14 ar  
    25    13    31 1   
    26    14    15 ar  
    27    14    32 1   
    28    15    16 ar  
    29    15    33 1   
    30    16    17 ar  
    31    16    34 1   
    32    17    18 1   
    33    18    19 1   
    34    18    20 2   
    35    20    21 1   
    36    20    22 ar  
    37    21    35 1   
    38    21    36 1   
    39    21    37 1   
    40    22    38 1   
@<TRIPOS>SUBSTRUCTURE
     1 25V         1 TEMP              0 ****  ****    0 ROOT
