@<TRIPOS>MOLECULE
25V
   38    40     1     0     0
SMALL
abcg2


@<TRIPOS>ATOM
      1 O1           3.4640     2.0390    -1.2090 o          1 25V      -0.579100
      2 C1           4.3900     1.3310    -0.8530 c          1 25V       0.608100
      3 C            5.8190     1.6400    -1.2180 c3         1 25V      -0.182100
      4 N            4.2370     0.1920    -0.1270 ns         1 25V      -0.149000
      5 C2           3.0720    -0.4120     0.3510 ca         1 25V      -0.016000
      6 C17          3.2320    -1.5800     1.1010 ca         1 25V      -0.165000
      7 C16          2.1310    -2.2400     1.6140 ca         1 25V      -0.082000
      8 C15          0.8500    -1.7580     1.3880 ca         1 25V      -0.126000
      9 C4           0.6770    -0.5990     0.6360 cp         1 25V      -0.011000
     10 C3           1.7850     0.0730     0.1200 ca         1 25V      -0.124000
     11 C5          -0.6670    -0.0270     0.4210 cp         1 25V      -0.042000
     12 C14         -1.7510    -0.7760    -0.1160 ca         1 25V      -0.006000
     13 C13         -1.6220    -2.1040    -0.5850 ca         1 25V      -0.107000
     14 C12         -2.6960    -2.7840    -1.0920 ca         1 25V      -0.089000
     15 C11         -3.9570    -2.1660    -1.1580 ca         1 25V      -0.115000
     16 C10         -4.1210    -0.8730    -0.7400 ca         1 25V      -0.063000
     17 C9          -3.0190    -0.1650    -0.2280 ca         1 25V      -0.130000
     18 N1          -3.2030     1.1580     0.1550 na         1 25V       0.458300
     19 O           -4.3570     1.6840     0.0520 o          1 25V      -0.521000
     20 C7          -2.1720     1.8730     0.6190 ca         1 25V      -0.130600
     21 C8          -2.4370     3.2880     0.9900 c3         1 25V      -0.031800
     22 C6          -0.9120     1.2780     0.7540 ca         1 25V      -0.077000
     23 H1           5.9840     2.7150    -1.1720 hc         1 25V       0.064700
     24 H2           6.5480     1.1450    -0.5780 hc         1 25V       0.064700
     25 H3           6.0010     1.3220    -2.2450 hc         1 25V       0.064700
     26 H4           5.0880    -0.2960     0.1070 hn         1 25V       0.149000
     27 H5           4.2260    -1.9710     1.2850 ha         1 25V       0.110000
     28 H6           2.2740    -3.1370     2.2010 ha         1 25V       0.116000
     29 H7          -0.0040    -2.2690     1.8130 ha         1 25V       0.123000
     30 H8           1.6310     0.9630    -0.4690 ha         1 25V       0.153000
     31 H9          -0.6530    -2.5830    -0.5530 ha         1 25V       0.128000
     32 H10         -2.5720    -3.7970    -1.4490 ha         1 25V       0.119000
     33 H11         -4.8040    -2.7120    -1.5520 ha         1 25V       0.121000
     34 H12         -5.0840    -0.3910    -0.8030 ha         1 25V       0.156000
     35 H14         -3.1760     3.3570     1.7900 hc         1 25V       0.058367
     36 H15         -1.5200     3.7640     1.3270 hc         1 25V       0.058367
     37 H16         -2.8280     3.8530     0.1430 hc         1 25V       0.058367
     38 H17         -0.1200     1.8900     1.1660 ha         1 25V       0.137000
@<TRIPOS>BOND
     1     1     2 2   
     2     2     3 1   
     3     2     4 1   
     4     3    23 1   
     5     3    24 1   
     6     3    25 1   
     7     4     5 1   
     8     4    26 1   
     9     5     6 ar  
    10     5    10 ar  
    11     6     7 ar  
    12     6    27 1   
    13     7     8 ar  
    14     7    28 1   
    15     8     9 ar  
    16     8    29 1   
    17     9    10 ar  
    18     9    11 1   
    19    10    30 1   
    20    11    12 ar  
    21    11    22 ar  
    22    12    13 ar  
    23    12    17 ar  
    24    13    14 ar  
    25    13    31 1   
    26    14    15 ar  
    27    14    32 1   
    28    15    16 ar  
    29    15    33 1   
    30    16    17 ar  
    31    16    34 1   
    32    17    18 1   
    33    18    19 1   
    34    18    20 2   
    35    20    21 1   
    36    20    22 ar  
    37    21    35 1   
    38    21    36 1   
    39    21    37 1   
    40    22    38 1   
@<TRIPOS>SUBSTRUCTURE
     1 25V         1 TEMP              0 ****  ****    0 ROOT
