@<TRIPOS>MOLECULE
25W
   24    24     1     0     0
SMALL
bcc


@<TRIPOS>ATOM
      1 O1           2.3590    -1.1910    -0.1880 oh         1 25W      -0.607800
      2 O2          -0.0900    -2.4580     0.3550 oh         1 25W      -0.604800
      3 O3          -2.4160    -1.0440    -0.2520 oh         1 25W      -0.603800
      4 C5          -1.2580    -0.4090     0.2400 c6         1 25W       0.155100
      5 C           -1.2420     1.0220    -0.2810 c6         1 25W       0.173500
      6 N           -2.4110     1.7350     0.2110 n8         1 25W      -0.882800
      7 C4          -0.0020    -1.1590    -0.1900 c6         1 25W       0.116100
      8 C3           1.2590    -0.4420     0.2750 c6         1 25W       0.120100
      9 C2           1.2780     0.9880    -0.2460 c6         1 25W       0.113100
     10 O            2.4580     1.5910     0.2460 oh         1 25W      -0.602800
     11 C1           0.0230     1.7240     0.2010 c6         1 25W      -0.114400
     12 H1           3.1640    -0.7690     0.1280 ho         1 25W       0.426000
     13 H2           0.6240    -2.9900    -0.0080 ho         1 25W       0.427000
     14 H3          -2.4120    -1.9560     0.0590 ho         1 25W       0.426000
     15 H4          -1.2780    -0.3650     1.3410 h1         1 25W       0.060700
     16 H5          -1.2090     0.9760    -1.3820 h1         1 25W       0.024700
     17 H6          -2.3920     2.6840    -0.1420 hn         1 25W       0.347800
     18 H7          -3.2490     1.3180    -0.1750 hn         1 25W       0.347800
     19 H9           0.0130    -1.2030    -1.2910 h1         1 25W       0.048700
     20 H10          1.2520    -0.4040     1.3770 h1         1 25W       0.057700
     21 H11          1.2980     0.9530    -1.3460 h1         1 25W       0.040700
     22 H12          2.6200     2.3970    -0.2530 ho         1 25W       0.411000
     23 H13          0.0400     2.7480    -0.1820 hc         1 25W       0.060200
     24 H14          0.0040     1.7930     1.2940 hc         1 25W       0.060200
@<TRIPOS>BOND
     1     1     8 1   
     2     1    12 1   
     3     2     7 1   
     4     2    13 1   
     5     3     4 1   
     6     3    14 1   
     7     4     5 1   
     8     4     7 1   
     9     4    15 1   
    10     5     6 1   
    11     5    11 1   
    12     5    16 1   
    13     6    17 1   
    14     6    18 1   
    15     7     8 1   
    16     7    19 1   
    17     8     9 1   
    18     8    20 1   
    19     9    10 1   
    20     9    11 1   
    21     9    21 1   
    22    10    22 1   
    23    11    23 1   
    24    11    24 1   
@<TRIPOS>SUBSTRUCTURE
     1 25W         1 TEMP              0 ****  ****    0 ROOT
