@<TRIPOS>MOLECULE
25W
   24    24     1     0     0
SMALL
No Charge or Current Charge


@<TRIPOS>ATOM
      1 O1           2.3890    -1.2760    -0.1150 oh         1 25W      -0.730000
      2 O2          -0.1340    -2.5730     0.2280 oh         1 25W      -0.727000
      3 O3          -2.5200    -1.0540    -0.1860 oh         1 25W      -0.726000
      4 C5          -1.3150    -0.4020     0.2640 c6         1 25W       0.178300
      5 C           -1.2310     1.0810    -0.2440 c6         1 25W       0.173500
      6 N           -2.4000     1.8750     0.2000 n8         1 25W      -0.993200
      7 C4          -0.0730    -1.2060    -0.2230 c6         1 25W       0.139300
      8 C3           1.2290    -0.5300     0.2940 c6         1 25W       0.143300
      9 C2           1.3240     0.9340    -0.2360 c6         1 25W       0.136300
     10 O            2.5350     1.5460     0.2360 oh         1 25W      -0.725000
     11 C1           0.0890     1.7590     0.2140 c6         1 25W      -0.114400
     12 H1           3.1280    -0.6210    -0.0550 ho         1 25W       0.525000
     13 H2           0.8060    -2.8800     0.1980 ho         1 25W       0.526000
     14 H3          -2.3050    -2.0170    -0.1240 ho         1 25W       0.525000
     15 H4          -1.2950    -0.3860     1.3650 h1         1 25W       0.060700
     16 H5          -1.2590     1.0630    -1.3440 h1         1 25W       0.024700
     17 H6          -2.5670     2.6240    -0.4810 hn         1 25W       0.403000
     18 H7          -3.2240     1.2690     0.0940 hn         1 25W       0.403000
     19 H9          -0.0550    -1.1820    -1.3240 h1         1 25W       0.048700
     20 H10          1.1850    -0.4890     1.3940 h1         1 25W       0.057700
     21 H11          1.3300     0.9030    -1.3370 h1         1 25W       0.040700
     22 H12          2.5590     2.4620    -0.1290 ho         1 25W       0.510000
     23 H13          0.1470     2.7740    -0.2030 hc         1 25W       0.060200
     24 H14          0.0920     1.8660     1.3080 hc         1 25W       0.060200
@<TRIPOS>BOND
     1     1     8 1   
     2     1    12 1   
     3     2     7 1   
     4     2    13 1   
     5     3     4 1   
     6     3    14 1   
     7     4     5 1   
     8     4     7 1   
     9     4    15 1   
    10     5     6 1   
    11     5    11 1   
    12     5    16 1   
    13     6    17 1   
    14     6    18 1   
    15     7     8 1   
    16     7    19 1   
    17     8     9 1   
    18     8    20 1   
    19     9    10 1   
    20     9    11 1   
    21     9    21 1   
    22    10    22 1   
    23    11    23 1   
    24    11    24 1   
@<TRIPOS>SUBSTRUCTURE
     1 25W         1 TEMP              0 ****  ****    0 ROOT
