@<TRIPOS>MOLECULE
25Z
   37    39     1     0     0
SMALL
bcc


@<TRIPOS>ATOM
      1 C1          -4.0680     1.7700    -0.7110 ca         1 25Z      -0.067000
      2 F1          -6.2470     1.5070     0.9290 f          1 25Z      -0.234967
      3 N1           2.6060    -1.2550    -0.2810 nc         1 25Z      -0.805000
      4 O1          -1.4400    -2.4530    -0.7580 o          1 25Z      -0.590100
      5 S1           0.9020     0.6900    -0.1610 ss         1 25Z      -0.234300
      6 C2          -4.1860     0.6740     0.1330 ca         1 25Z      -0.205300
      7 F2          -4.9710     0.5010     2.3380 f          1 25Z      -0.234967
      8 N2           3.5350     0.8570     0.1670 nu         1 25Z      -0.720300
      9 C3          -3.2070    -0.3120     0.1440 ca         1 25Z      -0.037000
     10 F3          -6.0110    -0.6290     0.8370 f          1 25Z      -0.234967
     11 N3           1.3150    -3.1230    -0.7010 nv         1 25Z      -0.936500
     12 C4          -2.0870    -0.1890    -0.6670 ca         1 25Z      -0.153600
     13 C5          -1.9710     0.9100    -1.5160 ca         1 25Z      -0.075000
     14 C6          -2.9620     1.8780    -1.5410 ca         1 25Z      -0.143000
     15 C7          -5.3570     0.5210     1.0540 c3         1 25Z       0.721200
     16 C8          -1.0630    -1.2810    -0.6550 c          1 25Z       0.646300
     17 C9           0.3000    -0.9260    -0.5010 cd         1 25Z      -0.393000
     18 C10          2.5090     0.0290    -0.0830 cd         1 25Z       0.777300
     19 C11          1.3900    -1.8110    -0.5030 cc         1 25Z       0.766200
     20 C12          4.9010     0.5760     0.2860 ca         1 25Z       0.155600
     21 C13          5.7240     1.6530     0.6270 ca         1 25Z      -0.161000
     22 C14          7.0900     1.4790     0.7610 ca         1 25Z      -0.101500
     23 C15          7.6620     0.2290     0.5580 ca         1 25Z      -0.148000
     24 C16          6.8440    -0.8380     0.2200 ca         1 25Z      -0.101500
     25 C17          5.4710    -0.6800     0.0810 ca         1 25Z      -0.161000
     26 H1          -4.8250     2.5410    -0.7380 ha         1 25Z       0.149000
     27 HN2          3.2950     1.8260     0.3120 hn         1 25Z       0.452800
     28 H3          -3.2990    -1.1760     0.7920 ha         1 25Z       0.159000
     29 HN3          2.1520    -3.6790    -0.7170 hn         1 25Z       0.463300
     30 HN3A         0.4240    -3.5600    -0.8640 hn         1 25Z       0.463300
     31 H5          -1.1210     0.9990    -2.1800 ha         1 25Z       0.145000
     32 H6          -2.8770     2.7210    -2.2130 ha         1 25Z       0.140000
     33 H13          5.2900     2.6330     0.7890 ha         1 25Z       0.148500
     34 H14          7.7080     2.3270     1.0260 ha         1 25Z       0.133500
     35 H15          8.7300     0.0910     0.6620 ha         1 25Z       0.136000
     36 H16          7.2720    -1.8190     0.0570 ha         1 25Z       0.133500
     37 H17          4.8580    -1.5270    -0.1820 ha         1 25Z       0.148500
@<TRIPOS>BOND
     1     1     6 ar  
     2     1    14 ar  
     3     1    26 1   
     4     2    15 1   
     5     3    18 2   
     6     3    19 1   
     7     4    16 2   
     8     5    17 1   
     9     5    18 1   
    10     6     9 ar  
    11     6    15 1   
    12     7    15 1   
    13     8    18 1   
    14     8    20 1   
    15     8    27 1   
    16     9    12 ar  
    17     9    28 1   
    18    10    15 1   
    19    11    19 1   
    20    11    29 1   
    21    11    30 1   
    22    12    13 ar  
    23    12    16 1   
    24    13    14 ar  
    25    13    31 1   
    26    14    32 1   
    27    16    17 1   
    28    17    19 2   
    29    20    21 ar  
    30    20    25 ar  
    31    21    22 ar  
    32    21    33 1   
    33    22    23 ar  
    34    22    34 1   
    35    23    24 ar  
    36    23    35 1   
    37    24    25 ar  
    38    24    36 1   
    39    25    37 1   
@<TRIPOS>SUBSTRUCTURE
     1 25Z         1 TEMP              0 ****  ****    0 ROOT
