@<TRIPOS>MOLECULE
25Z
   37    39     1     0     0
SMALL
No Charge or Current Charge


@<TRIPOS>ATOM
      1 C1          -4.1830     1.6940    -0.8960 ca         1 25Z      -0.049000
      2 F1          -6.1640     1.7710     1.1240 f          1 25Z      -0.113667
      3 N1           2.6090    -1.2210    -0.0960 nc         1 25Z      -0.805000
      4 O1          -1.3960    -2.4790    -0.4610 o          1 25Z      -0.590100
      5 S1           0.9110     0.7870    -0.2090 ss         1 25Z      -0.089400
      6 C2          -4.3230     0.6600     0.0540 ca         1 25Z      -0.205300
      7 F2          -5.3020     0.0740     2.1630 f          1 25Z      -0.113667
      8 N2           3.6240     0.8290     0.2320 nu         1 25Z      -0.913900
      9 C3          -3.3030    -0.3100     0.1680 ca         1 25Z      -0.019000
     10 F3          -6.5050    -0.2430     0.3800 f          1 25Z      -0.113667
     11 N3           1.4030    -3.0210    -0.3690 nv         1 25Z      -1.046900
     12 C4          -2.1450    -0.2380    -0.6330 ca         1 25Z      -0.153600
     13 C5          -2.0260     0.7970    -1.5840 ca         1 25Z      -0.057000
     14 C6          -3.0410     1.7580    -1.7100 ca         1 25Z      -0.125000
     15 C7          -5.5760     0.5680     0.9330 c3         1 25Z       0.357300
     16 C8          -1.0820    -1.2950    -0.4960 c          1 25Z       0.646300
     17 C9           0.3270    -0.8630    -0.3910 cd         1 25Z      -0.472600
     18 C10          2.5210     0.0860    -0.0420 cd         1 25Z       0.777300
     19 C11          1.3830    -1.7100    -0.3070 cc         1 25Z       0.700900
     20 C12          4.9990     0.5780     0.2620 ca         1 25Z       0.294000
     21 C13          5.8230     1.4740     0.9680 ca         1 25Z      -0.143000
     22 C14          7.2150     1.2820     1.0190 ca         1 25Z      -0.083500
     23 C15          7.7970     0.1910     0.3530 ca         1 25Z      -0.130000
     24 C16          6.9870    -0.7010    -0.3680 ca         1 25Z      -0.083500
     25 C17          5.5950    -0.5050    -0.4160 ca         1 25Z      -0.143000
     26 H1          -4.9610     2.4460    -1.0170 ha         1 25Z       0.131000
     27 HN2          3.3610     1.7690     0.5100 hn         1 25Z       0.508000
     28 H3          -3.4030    -1.1240     0.8850 ha         1 25Z       0.141000
     29 HN3          2.2070    -3.4380     0.0790 hn         1 25Z       0.518500
     30 HN3A         0.5060    -3.4690    -0.2130 hn         1 25Z       0.518500
     31 H5          -1.1560     0.8490    -2.2360 ha         1 25Z       0.127000
     32 H6          -2.9450     2.5530    -2.4460 ha         1 25Z       0.122000
     33 H13          5.3850     2.3210     1.4880 ha         1 25Z       0.130500
     34 H14          7.8410     1.9780     1.5740 ha         1 25Z       0.115500
     35 H15          8.8740     0.0410     0.3900 ha         1 25Z       0.118000
     36 H16          7.4370    -1.5400    -0.8940 ha         1 25Z       0.115500
     37 H17          4.9910    -1.1940    -0.9970 ha         1 25Z       0.130500
@<TRIPOS>BOND
     1     1     6 ar  
     2     1    14 ar  
     3     1    26 1   
     4     2    15 1   
     5     3    18 2   
     6     3    19 1   
     7     4    16 2   
     8     5    17 1   
     9     5    18 1   
    10     6     9 ar  
    11     6    15 1   
    12     7    15 1   
    13     8    18 1   
    14     8    20 1   
    15     8    27 1   
    16     9    12 ar  
    17     9    28 1   
    18    10    15 1   
    19    11    19 1   
    20    11    29 1   
    21    11    30 1   
    22    12    13 ar  
    23    12    16 1   
    24    13    14 ar  
    25    13    31 1   
    26    14    32 1   
    27    16    17 1   
    28    17    19 2   
    29    20    21 ar  
    30    20    25 ar  
    31    21    22 ar  
    32    21    33 1   
    33    22    23 ar  
    34    22    34 1   
    35    23    24 ar  
    36    23    35 1   
    37    24    25 ar  
    38    24    36 1   
    39    25    37 1   
@<TRIPOS>SUBSTRUCTURE
     1 25Z         1 TEMP              0 ****  ****    0 ROOT
