@<TRIPOS>MOLECULE
260
   15    15     1     0     0
SMALL
No Charge or Current Charge


@<TRIPOS>ATOM
      1 BrAC        -2.1670    -0.0280     0.2670 br         1 260      -0.260000
      2 CAG         -0.7430    -0.0080    -1.1250 c3         1 260       0.150900
      3 CAJ          0.6420     0.0010    -0.4880 ca         1 260      -0.178300
      4 CAH          1.3040    -1.2060    -0.1900 ca         1 260       0.214000
      5 FAA          0.7160    -2.3920    -0.4680 f          1 260      -0.167000
      6 CAE          2.5780    -1.2000     0.4000 ca         1 260      -0.169500
      7 CAD          3.2090     0.0180     0.7040 ca         1 260      -0.049000
      8 CAF          2.5560     1.2270     0.4130 ca         1 260      -0.169500
      9 CAI          1.2820     1.2170    -0.1770 ca         1 260       0.214000
     10 FAB          0.6740     2.3950    -0.4430 f          1 260      -0.167000
     11 HAG1        -0.8930    -0.8980    -1.7500 h1         1 260       0.088700
     12 HAG2        -0.9090     0.8860    -1.7400 h1         1 260       0.088700
     13 HAE          3.0740    -2.1410     0.6230 ha         1 260       0.140000
     14 HAD          4.1970     0.0240     1.1620 ha         1 260       0.124000
     15 HAF          3.0350     2.1750     0.6460 ha         1 260       0.140000
@<TRIPOS>BOND
     1     1     2 1   
     2     2     3 1   
     3     2    11 1   
     4     2    12 1   
     5     3     4 ar  
     6     3     9 ar  
     7     4     5 1   
     8     4     6 ar  
     9     6     7 ar  
    10     6    13 1   
    11     7     8 ar  
    12     7    14 1   
    13     8     9 ar  
    14     8    15 1   
    15     9    10 1   
@<TRIPOS>SUBSTRUCTURE
     1 260         1 TEMP              0 ****  ****    0 ROOT
