@<TRIPOS>MOLECULE
260
   15    15     1     0     0
SMALL
bcc


@<TRIPOS>ATOM
      1 BRAC        -2.1200    -0.0670     0.2660 br         1 260      -0.177400
      2 CAG         -0.7060    -0.0050    -1.1210 c3         1 260       0.068300
      3 CAJ          0.6380     0.0040    -0.4940 ca         1 260      -0.178300
      4 CAH          1.3120    -1.1710    -0.1780 ca         1 260       0.178900
      5 FAA          0.7040    -2.3310    -0.4510 f          1 260      -0.131900
      6 CAE          2.5640    -1.1930     0.4010 ca         1 260      -0.187500
      7 CAD          3.1780     0.0170     0.6890 ca         1 260      -0.067000
      8 CAF          2.5490     1.2210     0.4050 ca         1 260      -0.187500
      9 CAI          1.2970     1.1850    -0.1740 ca         1 260       0.178900
     10 FAB          0.6770     2.3400    -0.4430 f          1 260      -0.131900
     11 HAG1        -0.8650    -0.8750    -1.7530 h1         1 260       0.088700
     12 HAG2        -0.8980     0.8900    -1.7070 h1         1 260       0.088700
     13 HAE          3.0460    -2.1350     0.6220 ha         1 260       0.158000
     14 HAD          4.1580     0.0220     1.1440 ha         1 260       0.142000
     15 HAF          3.0200     2.1690     0.6280 ha         1 260       0.158000
@<TRIPOS>BOND
     1     1     2 1   
     2     2     3 1   
     3     2    11 1   
     4     2    12 1   
     5     3     4 ar  
     6     3     9 ar  
     7     4     5 1   
     8     4     6 ar  
     9     6     7 ar  
    10     6    13 1   
    11     7     8 ar  
    12     7    14 1   
    13     8     9 ar  
    14     8    15 1   
    15     9    10 1   
@<TRIPOS>SUBSTRUCTURE
     1 260         1 TEMP              0 ****  ****    0 ROOT
