@<TRIPOS>MOLECULE
261
   20    20     1     0     0
SMALL
abcg2


@<TRIPOS>ATOM
      1 CAA          3.7340     0.0080     0.0110 c3         1 261      -0.093100
      2 CAG          2.4020    -0.7050     0.0310 c3         1 261       0.163600
      3 OAH          1.3780     0.2770    -0.0100 os         1 261      -0.330100
      4 CAJ          0.0930    -0.1270    -0.0150 ca         1 261       0.118100
      5 CAF         -0.3320    -1.4480     0.0290 ca         1 261      -0.171000
      6 CAD         -1.6920    -1.7560     0.0180 ca         1 261      -0.109000
      7 CAC         -2.6320    -0.7450    -0.0360 ca         1 261      -0.108000
      8 CAE         -2.2140     0.5830    -0.0820 ca         1 261      -0.177000
      9 CAI         -0.8660     0.9010    -0.0710 ca         1 261       0.106100
     10 OAB         -0.4000     2.1670    -0.1130 oh         1 261      -0.516100
     11 HAA1         3.8450     0.6670     0.8720 hc         1 261       0.047033
     12 HAA2         4.5380    -0.7260     0.0450 hc         1 261       0.047033
     13 HAA3         3.8560     0.5980    -0.8980 hc         1 261       0.047033
     14 HAG1         2.3170    -1.3790    -0.8280 h1         1 261       0.030700
     15 HAG2         2.3100    -1.3140     0.9370 h1         1 261       0.030700
     16 HAF          0.3850    -2.2560     0.0720 ha         1 261       0.117000
     17 HAD         -2.0000    -2.7930     0.0540 ha         1 261       0.113000
     18 HAC         -3.6890    -0.9710    -0.0430 ha         1 261       0.114000
     19 HAE         -2.9480     1.3800    -0.1260 ha         1 261       0.113000
     20 HAB         -1.1370     2.7860    -0.1470 ho         1 261       0.457000
@<TRIPOS>BOND
     1     1     2 1   
     2     1    11 1   
     3     1    12 1   
     4     1    13 1   
     5     2     3 1   
     6     2    14 1   
     7     2    15 1   
     8     3     4 1   
     9     4     5 ar  
    10     4     9 ar  
    11     5     6 ar  
    12     5    16 1   
    13     6     7 ar  
    14     6    17 1   
    15     7     8 ar  
    16     7    18 1   
    17     8     9 ar  
    18     8    19 1   
    19     9    10 1   
    20    10    20 1   
@<TRIPOS>SUBSTRUCTURE
     1 261         1 TEMP              0 ****  ****    0 ROOT
