@<TRIPOS>MOLECULE
261
   20    20     1     0     0
SMALL
No Charge or Current Charge


@<TRIPOS>ATOM
      1 CAA          3.8150    -0.0100     0.0170 c3         1 261      -0.093100
      2 CAG          2.4700    -0.7530     0.0300 c3         1 261       0.163600
      3 OAH          1.4270     0.2340    -0.0210 os         1 261      -0.330100
      4 CAJ          0.0830    -0.1040    -0.0230 ca         1 261       0.118100
      5 CAF         -0.3470    -1.4520     0.0240 ca         1 261      -0.171000
      6 CAD         -1.7200    -1.7560     0.0200 ca         1 261      -0.109000
      7 CAC         -2.6720    -0.7250    -0.0320 ca         1 261      -0.108000
      8 CAE         -2.2560     0.6160    -0.0790 ca         1 261      -0.177000
      9 CAI         -0.8850     0.9310    -0.0750 ca         1 261       0.106100
     10 OAB         -0.5060     2.2470    -0.1220 oh         1 261      -0.516100
     11 HAA1         3.8970     0.6570     0.8840 hc         1 261       0.047033
     12 HAA2         4.6440    -0.7260     0.0550 hc         1 261       0.047033
     13 HAA3         3.9180     0.5880    -0.8960 hc         1 261       0.047033
     14 HAG1         2.4150    -1.4230    -0.8380 h1         1 261       0.030700
     15 HAG2         2.3940    -1.3540     0.9460 h1         1 261       0.030700
     16 HAF          0.3640    -2.2710     0.0650 ha         1 261       0.117000
     17 HAD         -2.0460    -2.7930     0.0560 ha         1 261       0.113000
     18 HAC         -3.7330    -0.9670    -0.0350 ha         1 261       0.114000
     19 HAE         -3.0030     1.4050    -0.1190 ha         1 261       0.113000
     20 HAB         -1.3130     2.8030    -0.1540 ho         1 261       0.457000
@<TRIPOS>BOND
     1     1     2 1   
     2     1    11 1   
     3     1    12 1   
     4     1    13 1   
     5     2     3 1   
     6     2    14 1   
     7     2    15 1   
     8     3     4 1   
     9     4     5 ar  
    10     4     9 ar  
    11     5     6 ar  
    12     5    16 1   
    13     6     7 ar  
    14     6    17 1   
    15     7     8 ar  
    16     7    18 1   
    17     8     9 ar  
    18     8    19 1   
    19     9    10 1   
    20    10    20 1   
@<TRIPOS>SUBSTRUCTURE
     1 261         1 TEMP              0 ****  ****    0 ROOT
