@<TRIPOS>MOLECULE
262
   18    18     1     0     0
SMALL
abcg2


@<TRIPOS>ATOM
      1 C1           0.1250     0.3480    -2.6110 ca         1 262      -0.041000
      2 C2           1.4760     0.3840    -2.8990 ca         1 262      -0.242000
      3 C3           2.3890    -0.0410    -1.9350 ca         1 262      -0.089000
      4 C4           1.9550    -0.4850    -0.6980 ca         1 262      -0.194000
      5 C5           0.5890    -0.5380    -0.4020 ca         1 262       0.321100
      6 C6          -0.3320    -0.1150    -1.3750 ca         1 262      -0.268600
      7 C7          -1.7760    -0.1910    -1.1060 c          1 262       0.662500
      8 O8           0.1750    -0.9790     0.7820 os         1 262      -0.433500
      9 P9          -0.3070     0.2300     1.9830 p5         1 262       1.242900
     10 O10         -0.9270    -0.6800     3.0230 o          1 262      -0.888167
     11 O11         -1.2670     1.1170     1.2050 o          1 262      -0.888167
     12 O14          1.0090     0.8840     2.3570 o          1 262      -0.888167
     13 O12         -2.6160     0.3620    -1.7870 o          1 262      -0.636100
     14 H1          -0.5950     0.6680    -3.3540 ha         1 262       0.087000
     15 H2           1.8220     0.7330    -3.8630 ha         1 262       0.064000
     16 H3           3.4500    -0.0140    -2.1500 ha         1 262       0.061000
     17 H4           2.6680    -0.8000     0.0540 ha         1 262       0.114000
     18 H7          -2.0740    -0.8600    -0.2880 h4         1 262       0.015200
@<TRIPOS>BOND
     1     1     2 ar  
     2     1     6 ar  
     3     1    14 1   
     4     2     3 ar  
     5     2    15 1   
     6     3     4 ar  
     7     3    16 1   
     8     4     5 ar  
     9     4    17 1   
    10     5     6 ar  
    11     5     8 1   
    12     6     7 1   
    13     7    13 2   
    14     7    18 1   
    15     8     9 1   
    16     9    10 1   
    17     9    11 1   
    18     9    12 1   
@<TRIPOS>SUBSTRUCTURE
     1 262         1 TEMP              0 ****  ****    0 ROOT
