@<TRIPOS>MOLECULE
262
   18    18     1     0     0
SMALL
No Charge or Current Charge


@<TRIPOS>ATOM
      1 C1           0.1020    -0.0510    -2.8920 ca         1 262      -0.041000
      2 C2           1.4510     0.3260    -2.9670 ca         1 262      -0.242000
      3 C3           2.1930     0.5290    -1.7970 ca         1 262      -0.089000
      4 C4           1.5830     0.3540    -0.5450 ca         1 262      -0.194000
      5 C5           0.2250    -0.0270    -0.4530 ca         1 262       0.321100
      6 C6          -0.5180    -0.2300    -1.6350 ca         1 262      -0.268600
      7 C7          -1.9630    -0.6340    -1.5500 c          1 262       0.662500
      8 O8          -0.4090    -0.2080     0.7510 os         1 262      -0.433500
      9 P9           0.1880    -0.0470     2.2410 p5         1 262       1.242900
     10 O10         -0.8880    -0.3520     3.2240 o          1 262      -0.888167
     11 O11          0.6610     1.3500     2.4530 o          1 262      -0.888167
     12 O14          1.3170    -0.9970     2.4440 o          1 262      -0.888167
     13 O12         -2.6620    -0.8260    -2.5440 o          1 262      -0.636100
     14 H1          -0.4590    -0.2050    -3.8120 ha         1 262       0.087000
     15 H2           1.9210     0.4610    -3.9380 ha         1 262       0.064000
     16 H3           3.2380     0.8210    -1.8580 ha         1 262       0.061000
     17 H4           2.1790     0.5170     0.3460 ha         1 262       0.114000
     18 H7          -2.3950    -0.7590    -0.5330 h4         1 262       0.015200
@<TRIPOS>BOND
     1     1     2 ar  
     2     1     6 ar  
     3     1    14 1   
     4     2     3 ar  
     5     2    15 1   
     6     3     4 ar  
     7     3    16 1   
     8     4     5 ar  
     9     4    17 1   
    10     5     6 ar  
    11     5     8 1   
    12     6     7 1   
    13     7    13 2   
    14     7    18 1   
    15     8     9 1   
    16     9    10 1   
    17     9    11 1   
    18     9    12 1   
@<TRIPOS>SUBSTRUCTURE
     1 262         1 TEMP              0 ****  ****    0 ROOT
