@<TRIPOS>MOLECULE
263
   20    20     1     0     0
SMALL
No Charge or Current Charge


@<TRIPOS>ATOM
      1 C4           1.0350    -0.8930    -0.3060 ca         1 263      -0.087000
      2 C14         -0.0180    -0.0170    -0.6360 ca         1 263      -0.126300
      3 C5           0.1630     1.3720    -0.4780 ca         1 263      -0.109000
      4 C6           1.3830     1.8750     0.0030 ca         1 263      -0.105000
      5 C11          2.4290     0.9960     0.3290 ca         1 263      -0.100000
      6 C7           2.2590    -0.3930     0.1790 ca         1 263      -0.075300
      7 C8           3.3910    -1.3470     0.5300 c3         1 263      -0.047800
      8 C13         -1.3410    -0.5690    -1.1580 c3         1 263       0.204100
      9 N1          -2.1890    -1.0440    -0.0570 n2         1 263      -0.435200
     10 N2          -2.7550    -0.1700     0.6180 n1         1 263       0.233000
     11 N3          -3.1770     0.6040     1.3370 n1         1 263      -0.076000
     12 H4           0.9000    -1.9670    -0.4250 ha         1 263       0.118000
     13 H5          -0.6420     2.0610    -0.7260 ha         1 263       0.112000
     14 H6           1.5190     2.9480     0.1230 ha         1 263       0.116000
     15 H11          3.3710     1.3950     0.7000 ha         1 263       0.113000
     16 H81          4.0140    -1.5530    -0.3480 hc         1 263       0.044367
     17 H82          4.0390    -0.9310     1.3110 hc         1 263       0.044367
     18 H83          3.0060    -2.3050     0.9000 hc         1 263       0.044367
     19 H131        -1.8560     0.2080    -1.7410 h1         1 263       0.067200
     20 H132        -1.1310    -1.3930    -1.8520 h1         1 263       0.067200
@<TRIPOS>BOND
     1     1     2 ar  
     2     1     6 ar  
     3     1    12 1   
     4     2     3 ar  
     5     2     8 1   
     6     3     4 ar  
     7     3    13 1   
     8     4     5 ar  
     9     4    14 1   
    10     5     6 ar  
    11     5    15 1   
    12     6     7 1   
    13     7    16 1   
    14     7    17 1   
    15     7    18 1   
    16     8     9 1   
    17     8    19 1   
    18     8    20 1   
    19     9    10 1   
    20    10    11 3   
@<TRIPOS>SUBSTRUCTURE
     1 263         1 TEMP              0 ****  ****    0 ROOT
