@<TRIPOS>MOLECULE
263
   20    20     1     0     0
SMALL
bcc


@<TRIPOS>ATOM
      1 C4           1.0070    -0.8530    -0.3380 ca         1 263      -0.105000
      2 C14         -0.0130     0.0160    -0.7110 ca         1 263      -0.126300
      3 C5           0.1580     1.3850    -0.5310 ca         1 263      -0.127000
      4 C6           1.3390     1.8690     0.0130 ca         1 263      -0.123000
      5 C11          2.3500     0.9920     0.3780 ca         1 263      -0.118000
      6 C7           2.2000    -0.3830     0.2040 ca         1 263      -0.075300
      7 C8           3.3000    -1.3370     0.5710 c3         1 263      -0.047800
      8 C13         -1.3070    -0.5260    -1.2500 c3         1 263       0.204100
      9 N1          -2.1990    -1.0270    -0.1850 n2         1 263      -0.435200
     10 N2          -2.4670    -0.2300     0.6950 n1         1 263       0.233000
     11 N3          -2.7600     0.4350     1.5530 n1         1 263      -0.076000
     12 H4           0.8700    -1.9210    -0.4750 ha         1 263       0.136000
     13 H5          -0.6280     2.0730    -0.8210 ha         1 263       0.130000
     14 H6           1.4730     2.9340     0.1530 ha         1 263       0.134000
     15 H11          3.2690     1.3790     0.8000 ha         1 263       0.131000
     16 H81          3.7630    -1.7620    -0.3220 hc         1 263       0.044367
     17 H82          4.0830    -0.8430     1.1440 hc         1 263       0.044367
     18 H83          2.9240    -2.1710     1.1640 hc         1 263       0.044367
     19 H131        -1.8270     0.2310    -1.8430 h1         1 263       0.067200
     20 H132        -1.1340    -1.3840    -1.8960 h1         1 263       0.067200
@<TRIPOS>BOND
     1     1     2 ar  
     2     1     6 ar  
     3     1    12 1   
     4     2     3 ar  
     5     2     8 1   
     6     3     4 ar  
     7     3    13 1   
     8     4     5 ar  
     9     4    14 1   
    10     5     6 ar  
    11     5    15 1   
    12     6     7 1   
    13     7    16 1   
    14     7    17 1   
    15     7    18 1   
    16     8     9 1   
    17     8    19 1   
    18     8    20 1   
    19     9    10 1   
    20    10    11 3   
@<TRIPOS>SUBSTRUCTURE
     1 263         1 TEMP              0 ****  ****    0 ROOT
