@<TRIPOS>MOLECULE
264
   18    18     1     0     0
SMALL
No Charge or Current Charge


@<TRIPOS>ATOM
      1 CAF         27.1420     7.5040     4.6730 ca         1 264      -0.164500
      2 CAD         26.2060     6.8260     5.4740 ca         1 264      -0.073000
      3 CAC         25.5390     5.6980     4.9680 ca         1 264      -0.145000
      4 CAE         25.8090     5.2480     3.6640 ca         1 264      -0.073000
      5 CAG         26.7460     5.9300     2.8670 ca         1 264      -0.164500
      6 CAJ         27.4130     7.0640     3.3670 ca         1 264       0.288000
      7 NAI         28.3510     7.7590     2.5990 nu         1 264      -0.939200
      8 CAH         28.4360     7.7980     1.1090 c3         1 264       0.274900
      9 CAB         27.2480     8.4040     0.4640 c1         1 264       0.249900
     10 NAA         26.2970     8.8610    -0.0330 n1         1 264      -0.444000
     11 HAF         27.6540     8.3760     5.0710 ha         1 264       0.112000
     12 HAD         25.9980     7.1740     6.4840 ha         1 264       0.112000
     13 HAC         24.8140     5.1720     5.5850 ha         1 264       0.115000
     14 HAE         25.2950     4.3730     3.2730 ha         1 264       0.112000
     15 HAG         26.9490     5.5670     1.8640 ha         1 264       0.112000
     16 HAI         28.8240     8.5220     3.0880 hn         1 264       0.468000
     17 HAH1        29.3140     8.3820     0.7990 h1         1 264       0.079700
     18 HAH2        28.5690     6.7860     0.7030 h1         1 264       0.079700
@<TRIPOS>BOND
     1     1     2 ar  
     2     1     6 ar  
     3     1    11 1   
     4     2     3 ar  
     5     2    12 1   
     6     3     4 ar  
     7     3    13 1   
     8     4     5 ar  
     9     4    14 1   
    10     5     6 ar  
    11     5    15 1   
    12     6     7 1   
    13     7     8 1   
    14     7    16 1   
    15     8     9 1   
    16     8    17 1   
    17     8    18 1   
    18     9    10 3   
@<TRIPOS>SUBSTRUCTURE
     1 264         1 TEMP              0 ****  ****    0 ROOT
