@<TRIPOS>MOLECULE
264
   18    18     1     0     0
SMALL
abcg2


@<TRIPOS>ATOM
      1 CAF         27.1740     7.4860     4.6880 ca         1 264      -0.164500
      2 CAD         26.2620     6.7850     5.4600 ca         1 264      -0.073000
      3 CAC         25.5670     5.6990     4.9290 ca         1 264      -0.145000
      4 CAE         25.8010     5.3330     3.6090 ca         1 264      -0.073000
      5 CAG         26.7130     6.0290     2.8220 ca         1 264      -0.164500
      6 CAJ         27.4190     7.1140     3.3570 ca         1 264       0.288000
      7 NAI         28.3830     7.8100     2.6300 nu         1 264      -0.939200
      8 CAH         28.4480     7.7320     1.1920 c3         1 264       0.274900
      9 CAB         27.2430     8.2540     0.5130 c1         1 264       0.249900
     10 NAA         26.2950     8.6750     0.0170 n1         1 264      -0.444000
     11 HAF         27.7120     8.3290     5.1070 ha         1 264       0.112000
     12 HAD         26.0910     7.0910     6.4850 ha         1 264       0.112000
     13 HAC         24.8540     5.1540     5.5340 ha         1 264       0.115000
     14 HAE         25.2660     4.4960     3.1760 ha         1 264       0.112000
     15 HAG         26.8690     5.7190     1.7990 ha         1 264       0.112000
     16 HAI         28.6010     8.7250     2.9970 hn         1 264       0.468000
     17 HAH1        29.3040     8.3110     0.8450 h1         1 264       0.079700
     18 HAH2        28.6020     6.7040     0.8590 h1         1 264       0.079700
@<TRIPOS>BOND
     1     1     2 ar  
     2     1     6 ar  
     3     1    11 1   
     4     2     3 ar  
     5     2    12 1   
     6     3     4 ar  
     7     3    13 1   
     8     4     5 ar  
     9     4    14 1   
    10     5     6 ar  
    11     5    15 1   
    12     6     7 1   
    13     7     8 1   
    14     7    16 1   
    15     8     9 1   
    16     8    17 1   
    17     8    18 1   
    18     9    10 3   
@<TRIPOS>SUBSTRUCTURE
     1 264         1 TEMP              0 ****  ****    0 ROOT
