@<TRIPOS>MOLECULE
265
   11    11     1     0     0
SMALL
abcg2


@<TRIPOS>ATOM
      1 CAE         -0.4880    -1.4520     0.0410 cc         1 265      -0.032000
      2 CAC         -1.8860    -1.2660     0.0230 cc         1 265      -0.147000
      3 CAD         -2.2390     0.0550     0.0120 cd         1 265      -0.235000
      4 SAF         -0.8940     1.1010     0.0220 ss         1 265       0.373000
      5 CAG          0.1620    -0.2510     0.0430 cd         1 265      -0.367200
      6 NAH          1.5640    -0.0400     0.0580 no         1 265       0.733200
      7 OAB          2.2880    -1.0090     0.0710 o          1 265      -0.398000
      8 OAA          1.9490     1.1100     0.0570 o          1 265      -0.398000
      9 HAE          0.0040    -2.4130     0.0540 ha         1 265       0.164000
     10 HAC         -2.6020    -2.0730     0.0190 ha         1 265       0.147000
     11 HAD         -3.2360     0.4670    -0.0030 h4         1 265       0.160000
@<TRIPOS>BOND
     1     1     2 1   
     2     1     5 2   
     3     1     9 1   
     4     2     3 2   
     5     2    10 1   
     6     3     4 1   
     7     3    11 1   
     8     4     5 1   
     9     5     6 1   
    10     6     7 1   
    11     6     8 1   
@<TRIPOS>SUBSTRUCTURE
     1 265         1 TEMP              0 ****  ****    0 ROOT
