@<TRIPOS>MOLECULE
265
   11    11     1     0     0
SMALL
No Charge or Current Charge


@<TRIPOS>ATOM
      1 CAE         -0.5000    -1.4260     0.0410 cc         1 265      -0.032000
      2 CAC         -1.9060    -1.2640     0.0230 cc         1 265      -0.147000
      3 CAD         -2.3080     0.0460     0.0110 cd         1 265      -0.235000
      4 SAF         -0.9180     1.1480     0.0220 ss         1 265       0.373000
      5 CAG          0.1910    -0.2360     0.0430 cd         1 265      -0.367200
      6 NAH          1.6180    -0.0390     0.0590 no         1 265       0.733200
      7 OAB          2.3370    -1.0440     0.0730 o          1 265      -0.398000
      8 OAA          2.0430     1.1210     0.0570 o          1 265      -0.398000
      9 HAE         -0.0330    -2.4090     0.0520 ha         1 265       0.164000
     10 HAC         -2.5870    -2.1110     0.0200 ha         1 265       0.147000
     11 HAD         -3.3160     0.4440    -0.0030 h4         1 265       0.160000
@<TRIPOS>BOND
     1     1     2 1   
     2     1     5 2   
     3     1     9 1   
     4     2     3 2   
     5     2    10 1   
     6     3     4 1   
     7     3    11 1   
     8     4     5 1   
     9     5     6 1   
    10     6     7 1   
    11     6     8 1   
@<TRIPOS>SUBSTRUCTURE
     1 265         1 TEMP              0 ****  ****    0 ROOT
