@<TRIPOS>MOLECULE
266
   19    18     1     0     0
SMALL
bcc


@<TRIPOS>ATOM
      1 CAA          3.9370    -0.5880     0.0150 c3         1 266      -0.089100
      2 CAC          2.7440     0.3590     0.0150 c3         1 266      -0.066400
      3 CAE          1.4280    -0.4050     0.0110 c3         1 266       0.024700
      4 SAG          0.0310     0.7540     0.0130 ss         1 266      -0.360200
      5 CAF         -1.3480    -0.4240     0.0150 c3         1 266       0.012700
      6 CAD         -2.6590     0.3420     0.0150 c3         1 266       0.149400
      7 OAB         -3.7070    -0.6010     0.0160 oh         1 266      -0.599800
      8 HAA1         3.9280    -1.2330     0.8940 hc         1 266       0.034367
      9 HAA2         3.9320    -1.2280    -0.8690 hc         1 266       0.034367
     10 HAA3         4.8770    -0.0350     0.0180 hc         1 266       0.034367
     11 HAC1         2.7870     1.0090     0.8930 hc         1 266       0.052700
     12 HAC2         2.7900     1.0130    -0.8600 hc         1 266       0.052700
     13 HAE1         1.3610    -1.0430    -0.8740 h1         1 266       0.057200
     14 HAE2         1.3590    -1.0480     0.8920 h1         1 266       0.057200
     15 HAF1        -1.2810    -1.0600    -0.8710 h1         1 266       0.068700
     16 HAF2        -1.2800    -1.0600     0.9000 h1         1 266       0.068700
     17 HAD1        -2.6980     0.9930     0.8970 h1         1 266       0.031200
     18 HAD2        -2.6990     0.9920    -0.8680 h1         1 266       0.031200
     19 HAB         -4.5400    -0.1200     0.0190 ho         1 266       0.407000
@<TRIPOS>BOND
     1     1     2 1   
     2     1     8 1   
     3     1     9 1   
     4     1    10 1   
     5     2     3 1   
     6     2    11 1   
     7     2    12 1   
     8     3     4 1   
     9     3    13 1   
    10     3    14 1   
    11     4     5 1   
    12     5     6 1   
    13     5    15 1   
    14     5    16 1   
    15     6     7 1   
    16     6    17 1   
    17     6    18 1   
    18     7    19 1   
@<TRIPOS>SUBSTRUCTURE
     1 266         1 TEMP              0 ****  ****    0 ROOT
