@<TRIPOS>MOLECULE
266
   19    18     1     0     0
SMALL
No Charge or Current Charge


@<TRIPOS>ATOM
      1 CAA          4.0160    -0.5960     0.0130 c3         1 266      -0.089100
      2 CAC          2.7960     0.3450     0.0150 c3         1 266      -0.066400
      3 CAE          1.4540    -0.4110     0.0140 c3         1 266       0.072600
      4 SAG          0.0410     0.7820     0.0150 ss         1 266      -0.456000
      5 CAF         -1.3800    -0.4100     0.0140 c3         1 266       0.060600
      6 CAD         -2.7320     0.3350     0.0150 c3         1 266       0.172600
      7 OAB         -3.8150    -0.6080     0.0140 oh         1 266      -0.662000
      8 HAA1         4.0110    -1.2390     0.9020 hc         1 266       0.034367
      9 HAA2         4.0110    -1.2360    -0.8770 hc         1 266       0.034367
     10 HAA3         4.9470    -0.0160     0.0140 hc         1 266       0.034367
     11 HAC1         2.8450     0.9940     0.8980 hc         1 266       0.052700
     12 HAC2         2.8450     0.9970    -0.8660 hc         1 266       0.052700
     13 HAE1         1.3870    -1.0480    -0.8780 h1         1 266       0.057200
     14 HAE2         1.3870    -1.0500     0.9040 h1         1 266       0.057200
     15 HAF1        -1.3140    -1.0460    -0.8780 h1         1 266       0.068700
     16 HAF2        -1.3140    -1.0490     0.9040 h1         1 266       0.068700
     17 HAD1        -2.7870     0.9770     0.9040 h1         1 266       0.031200
     18 HAD2        -2.7870     0.9800    -0.8720 h1         1 266       0.031200
     19 HAB         -4.6480    -0.0850     0.0150 ho         1 266       0.446000
@<TRIPOS>BOND
     1     1     2 1   
     2     1     8 1   
     3     1     9 1   
     4     1    10 1   
     5     2     3 1   
     6     2    11 1   
     7     2    12 1   
     8     3     4 1   
     9     3    13 1   
    10     3    14 1   
    11     4     5 1   
    12     5     6 1   
    13     5    15 1   
    14     5    16 1   
    15     6     7 1   
    16     6    17 1   
    17     6    18 1   
    18     7    19 1   
@<TRIPOS>SUBSTRUCTURE
     1 266         1 TEMP              0 ****  ****    0 ROOT
