@<TRIPOS>MOLECULE
267
   20    20     1     0     0
SMALL
bcc


@<TRIPOS>ATOM
      1 C4           0.9850    -0.8800    -0.3020 ca         1 267      -0.105000
      2 C14         -0.0300    -0.0180    -0.7130 ca         1 267      -0.127300
      3 C5           0.1600     1.3540    -0.6100 ca         1 267      -0.125000
      4 C6           1.3560     1.8520    -0.1080 ca         1 267      -0.124000
      5 C11          2.3580     0.9840     0.2940 ca         1 267      -0.119000
      6 C7           2.1880    -0.3980     0.2010 ca         1 267      -0.074300
      7 C8           3.2850    -1.3350     0.6140 c3         1 267      -0.047800
      8 C13         -1.3360    -0.5740    -1.2080 c3         1 267       0.204100
      9 N1          -2.1930    -1.0680    -0.1120 n2         1 267      -0.436200
     10 N2          -2.4330    -0.2640     0.7700 n1         1 267       0.233000
     11 N3          -2.6960     0.4090     1.6310 n1         1 267      -0.075000
     12 H4           0.8320    -1.9520    -0.3780 ha         1 267       0.137000
     13 H5          -0.6220     2.0350    -0.9260 ha         1 267       0.130000
     14 H6           1.5050     2.9210    -0.0290 ha         1 267       0.133000
     15 H11          3.2870     1.3830     0.6860 ha         1 267       0.131000
     16 H81          4.0770    -1.3660    -0.1360 hc         1 267       0.044033
     17 H82          3.7440    -1.0230     1.5530 hc         1 267       0.044033
     18 H83          2.9160    -2.3520     0.7420 hc         1 267       0.044033
     19 H131        -1.8770     0.1730    -1.7940 h1         1 267       0.067200
     20 H132        -1.1770    -1.4380    -1.8490 h1         1 267       0.067200
@<TRIPOS>BOND
     1     1     2 ar  
     2     1     6 ar  
     3     1    12 1   
     4     2     3 ar  
     5     2     8 1   
     6     3     4 ar  
     7     3    13 1   
     8     4     5 ar  
     9     4    14 1   
    10     5     6 ar  
    11     5    15 1   
    12     6     7 1   
    13     7    16 1   
    14     7    17 1   
    15     7    18 1   
    16     8     9 1   
    17     8    19 1   
    18     8    20 1   
    19     9    10 1   
    20    10    11 3   
@<TRIPOS>SUBSTRUCTURE
     1 267         1 TEMP              0 ****  ****    0 ROOT
