@<TRIPOS>MOLECULE
267
   20    20     1     0     0
SMALL
No Charge or Current Charge


@<TRIPOS>ATOM
      1 C4           1.0340    -0.9180    -0.2900 ca         1 267      -0.087000
      2 C14         -0.0230    -0.0510    -0.6330 ca         1 267      -0.127300
      3 C5           0.1530     1.3410    -0.5020 ca         1 267      -0.107000
      4 C6           1.3730     1.8570    -0.0340 ca         1 267      -0.106000
      5 C11          2.4230     0.9880     0.3050 ca         1 267      -0.101000
      6 C7           2.2570    -0.4040     0.1810 ca         1 267      -0.074300
      7 C8           3.3940    -1.3480     0.5470 c3         1 267      -0.047800
      8 C13         -1.3460    -0.6170    -1.1410 c3         1 267       0.204100
      9 N1          -2.1880    -1.0770    -0.0290 n2         1 267      -0.436200
     10 N2          -2.7550    -0.1930     0.6330 n1         1 267       0.233000
     11 N3          -3.1770     0.5930     1.3400 n1         1 267      -0.075000
     12 H4           0.9020    -1.9930    -0.3890 ha         1 267       0.119000
     13 H5          -0.6550     2.0220    -0.7600 ha         1 267       0.112000
     14 H6           1.5050     2.9330     0.0650 ha         1 267       0.115000
     15 H11          3.3650     1.3970     0.6650 ha         1 267       0.113000
     16 H81          4.0150    -1.5670    -0.3290 hc         1 267       0.044033
     17 H82          4.0420    -0.9150     1.3180 hc         1 267       0.044033
     18 H83          3.0130    -2.3000     0.9350 hc         1 267       0.044033
     19 H131        -1.8660     0.1470    -1.7360 h1         1 267       0.067200
     20 H132        -1.1350    -1.4530    -1.8220 h1         1 267       0.067200
@<TRIPOS>BOND
     1     1     2 ar  
     2     1     6 ar  
     3     1    12 1   
     4     2     3 ar  
     5     2     8 1   
     6     3     4 ar  
     7     3    13 1   
     8     4     5 ar  
     9     4    14 1   
    10     5     6 ar  
    11     5    15 1   
    12     6     7 1   
    13     7    16 1   
    14     7    17 1   
    15     7    18 1   
    16     8     9 1   
    17     8    19 1   
    18     8    20 1   
    19     9    10 1   
    20    10    11 3   
@<TRIPOS>SUBSTRUCTURE
     1 267         1 TEMP              0 ****  ****    0 ROOT
