@<TRIPOS>MOLECULE
268
   20    20     1     0     0
SMALL
bcc


@<TRIPOS>ATOM
      1 CAE         -1.2730    -1.2160     0.1450 ca         1 268      -0.191500
      2 CAC         -2.6430    -1.0750     0.0110 ca         1 268      -0.092000
      3 CAB         -3.2140     0.1810    -0.1670 ca         1 268      -0.168000
      4 CAD         -2.3890     1.2940    -0.2080 ca         1 268      -0.092000
      5 CAF         -1.0100     1.1710    -0.0730 ca         1 268      -0.191500
      6 CAJ         -0.4450    -0.0910     0.1040 ca         1 268       0.146100
      7 OAI          0.8750    -0.3200     0.2440 os         1 268      -0.313900
      8 CAH          1.7710     0.7750     0.1970 c3         1 268       0.140400
      9 CAG          3.1740     0.2570     0.3780 c3         1 268       0.139400
     10 OAA          3.5180    -0.5520    -0.7220 oh         1 268      -0.584800
     11 HAE         -0.8330    -2.1950     0.2860 ha         1 268       0.138000
     12 HAC         -3.2720    -1.9560     0.0450 ha         1 268       0.128500
     13 HAB         -4.2860     0.2870    -0.2700 ha         1 268       0.132000
     14 HAD         -2.8150     2.2800    -0.3460 ha         1 268       0.128500
     15 HAF         -0.3980     2.0620    -0.1090 ha         1 268       0.138000
     16 HAH1         1.6860     1.3080    -0.7570 h1         1 268       0.042200
     17 HAH2         1.5580     1.4910     0.9980 h1         1 268       0.042200
     18 HAG1         3.8290     1.1310     0.4690 h1         1 268       0.028200
     19 HAG2         3.2390    -0.2900     1.3270 h1         1 268       0.028200
     20 HAA          4.4040    -0.8930    -0.5760 ho         1 268       0.404000
@<TRIPOS>BOND
     1     1     2 ar  
     2     1     6 ar  
     3     1    11 1   
     4     2     3 ar  
     5     2    12 1   
     6     3     4 ar  
     7     3    13 1   
     8     4     5 ar  
     9     4    14 1   
    10     5     6 ar  
    11     5    15 1   
    12     6     7 1   
    13     7     8 1   
    14     8     9 1   
    15     8    16 1   
    16     8    17 1   
    17     9    10 1   
    18     9    18 1   
    19     9    19 1   
    20    10    20 1   
@<TRIPOS>SUBSTRUCTURE
     1 268         1 TEMP              0 ****  ****    0 ROOT
