@<TRIPOS>MOLECULE
268
   20    20     1     0     0
SMALL
No Charge or Current Charge


@<TRIPOS>ATOM
      1 CAE         -1.3140    -1.2290     0.1460 ca         1 268      -0.173500
      2 CAC         -2.7080    -1.0980     0.0170 ca         1 268      -0.074000
      3 CAB         -3.2770     0.1730    -0.1610 ca         1 268      -0.150000
      4 CAD         -2.4560     1.3120    -0.2110 ca         1 268      -0.074000
      5 CAF         -1.0610     1.1820    -0.0820 ca         1 268      -0.173500
      6 CAJ         -0.4850    -0.0960     0.0970 ca         1 268       0.146100
      7 OAI          0.8750    -0.2870     0.2300 os         1 268      -0.337100
      8 CAH          1.8120     0.8100     0.1940 c3         1 268       0.163600
      9 CAG          3.2470     0.2530     0.3780 c3         1 268       0.162600
     10 OAA          3.6460    -0.5590    -0.7420 oh         1 268      -0.647000
     11 HAE         -0.8730    -2.2130     0.2840 ha         1 268       0.120000
     12 HAC         -3.3440    -1.9800     0.0550 ha         1 268       0.110500
     13 HAB         -4.3560     0.2760    -0.2610 ha         1 268       0.114000
     14 HAD         -2.9000     2.2960    -0.3490 ha         1 268       0.110500
     15 HAF         -0.4490     2.0780    -0.1240 ha         1 268       0.120000
     16 HAH1         1.7500     1.3490    -0.7600 h1         1 268       0.042200
     17 HAH2         1.6020     1.5180     1.0060 h1         1 268       0.042200
     18 HAG1         3.9370     1.1000     0.4900 h1         1 268       0.028200
     19 HAG2         3.2870    -0.3290     1.3080 h1         1 268       0.028200
     20 HAA          4.5420    -0.9080    -0.5380 ho         1 268       0.443000
@<TRIPOS>BOND
     1     1     2 ar  
     2     1     6 ar  
     3     1    11 1   
     4     2     3 ar  
     5     2    12 1   
     6     3     4 ar  
     7     3    13 1   
     8     4     5 ar  
     9     4    14 1   
    10     5     6 ar  
    11     5    15 1   
    12     6     7 1   
    13     7     8 1   
    14     8     9 1   
    15     8    16 1   
    16     8    17 1   
    17     9    10 1   
    18     9    18 1   
    19     9    19 1   
    20    10    20 1   
@<TRIPOS>SUBSTRUCTURE
     1 268         1 TEMP              0 ****  ****    0 ROOT
