@<TRIPOS>MOLECULE
269
   22    22     1     0     0
SMALL
No Charge or Current Charge


@<TRIPOS>ATOM
      1 CAF         -2.1180     0.5020    -1.2050 ca         1 269      -0.098500
      2 CAD         -3.4080     0.8860    -0.8000 ca         1 269      -0.107500
      3 CAC         -3.8260     0.6650     0.5220 ca         1 269      -0.104000
      4 CAE         -2.9530     0.0560     1.4380 ca         1 269      -0.107500
      5 CAG         -1.6620    -0.3280     1.0350 ca         1 269      -0.098500
      6 CAJ         -1.2310    -0.1050    -0.2920 ca         1 269      -0.114300
      7 CAK          0.1670    -0.5170    -0.7540 c3         1 269       0.216600
      8 OAA          0.2410    -1.9430    -0.8110 oh         1 269      -0.650000
      9 CAI          1.2930     0.0200     0.1590 c3         1 269      -0.124400
     10 CAH          2.7050    -0.2310    -0.4050 c3         1 269       0.134600
     11 ClAB         3.9760     0.4670     0.6920 cl         1 269      -0.293000
     12 HAF         -1.8090     0.6790    -2.2340 ha         1 269       0.109000
     13 HAD         -4.0840     1.3550    -1.5120 ha         1 269       0.114500
     14 HAC         -4.8250     0.9620     0.8350 ha         1 269       0.114000
     15 HAE         -3.2770    -0.1180     2.4620 ha         1 269       0.114500
     16 HAG         -1.0030    -0.8010     1.7590 ha         1 269       0.109000
     17 HAK          0.3330    -0.1010    -1.7580 h1         1 269       0.077700
     18 HAA         -0.3480    -2.2760    -0.1010 ho         1 269       0.442000
     19 HAI1         1.1540     1.1000     0.2890 hc         1 269       0.064200
     20 HAI2         1.2220    -0.4330     1.1550 hc         1 269       0.064200
     21 HAH1         2.9010    -1.3080    -0.4980 h1         1 269       0.068700
     22 HAH2         2.8180     0.2410    -1.3890 h1         1 269       0.068700
@<TRIPOS>BOND
     1     1     2 ar  
     2     1     6 ar  
     3     1    12 1   
     4     2     3 ar  
     5     2    13 1   
     6     3     4 ar  
     7     3    14 1   
     8     4     5 ar  
     9     4    15 1   
    10     5     6 ar  
    11     5    16 1   
    12     6     7 1   
    13     7     8 1   
    14     7     9 1   
    15     7    17 1   
    16     8    18 1   
    17     9    10 1   
    18     9    19 1   
    19     9    20 1   
    20    10    11 1   
    21    10    21 1   
    22    10    22 1   
@<TRIPOS>SUBSTRUCTURE
     1 269         1 TEMP              0 ****  ****    0 ROOT
