@<TRIPOS>MOLECULE
269
   22    22     1     0     0
SMALL
bcc


@<TRIPOS>ATOM
      1 CAF         -1.9600     0.6960    -1.0660 ca         1 269      -0.116500
      2 CAD         -3.2090     1.1630    -0.6770 ca         1 269      -0.125500
      3 CAC         -3.7780     0.7220     0.5100 ca         1 269      -0.122000
      4 CAE         -3.0890    -0.1860     1.3030 ca         1 269      -0.125500
      5 CAG         -1.8400    -0.6500     0.9130 ca         1 269      -0.116500
      6 CAJ         -1.2630    -0.2140    -0.2770 ca         1 269      -0.114300
      7 CAK          0.1140    -0.6820    -0.6970 c3         1 269       0.193400
      8 OAA          0.3050    -2.0660    -0.5010 oh         1 269      -0.587800
      9 CAI          1.1870     0.1540     0.0090 c3         1 269      -0.124400
     10 CAH          2.5830    -0.2240    -0.4410 c3         1 269       0.058000
     11 CLAB         3.8080     0.8260     0.3640 cl         1 269      -0.216400
     12 HAF         -1.5250     1.0390    -1.9970 ha         1 269       0.127000
     13 HAD         -3.7390     1.8680    -1.3050 ha         1 269       0.132500
     14 HAC         -4.7530     1.0800     0.8120 ha         1 269       0.132000
     15 HAE         -3.5250    -0.5370     2.2300 ha         1 269       0.132500
     16 HAG         -1.3240    -1.3570     1.5530 ha         1 269       0.127000
     17 HAK          0.2110    -0.5240    -1.7750 h1         1 269       0.077700
     18 HAA          0.4140    -2.2420     0.4400 ho         1 269       0.403000
     19 HAI1         1.0070     1.2080    -0.2080 hc         1 269       0.064200
     20 HAI2         1.0960     0.0320     1.0930 hc         1 269       0.064200
     21 HAH1         2.8370    -1.2490    -0.1840 h1         1 269       0.068700
     22 HAH2         2.7090    -0.0860    -1.5140 h1         1 269       0.068700
@<TRIPOS>BOND
     1     1     2 ar  
     2     1     6 ar  
     3     1    12 1   
     4     2     3 ar  
     5     2    13 1   
     6     3     4 ar  
     7     3    14 1   
     8     4     5 ar  
     9     4    15 1   
    10     5     6 ar  
    11     5    16 1   
    12     6     7 1   
    13     7     8 1   
    14     7     9 1   
    15     7    17 1   
    16     8    18 1   
    17     9    10 1   
    18     9    19 1   
    19     9    20 1   
    20    10    11 1   
    21    10    21 1   
    22    10    22 1   
@<TRIPOS>SUBSTRUCTURE
     1 269         1 TEMP              0 ****  ****    0 ROOT
