@<TRIPOS>MOLECULE
26A
   38    40     1     0     0
SMALL
bcc


@<TRIPOS>ATOM
      1 C10          5.5580    -0.3270    -0.2630 c3         1 26A       0.208100
      2 N6           4.2020    -0.8410    -0.2470 nh         1 26A      -0.756300
      3 C9           4.0650    -2.2810    -0.3180 c3         1 26A       0.208100
      4 C6           3.1910    -0.0260     0.0930 ca         1 26A       0.775200
      5 C5           1.8270    -0.3990     0.2180 ca         1 26A      -0.212200
      6 C4           0.9490     0.6290     0.5490 ca         1 26A       0.443800
      7 N3           1.2420     1.9090     0.7650 nb         1 26A      -0.749000
      8 C2           2.5360     2.1320     0.6290 ca         1 26A       0.707900
      9 N1           3.4890     1.2630     0.3210 nb         1 26A      -0.833000
     10 N7           1.1310    -1.5750     0.0810 nc         1 26A      -0.564100
     11 C8          -0.1100    -1.2650     0.3170 cd         1 26A       0.411700
     12 N9          -0.2870     0.0570     0.6040 na         1 26A      -0.281000
     13 C1          -1.5220     0.7720     0.9100 c5         1 26A       0.265800
     14 O4          -2.5270    -0.1500     1.1980 os         1 26A      -0.380600
     15 C11         -3.5190    -0.1710     0.1690 c5         1 26A       0.137100
     16 C7          -3.9200    -1.5870    -0.1610 c3         1 26A       0.139400
     17 O5          -4.5250    -2.1680     0.9660 oh         1 26A      -0.578800
     18 C12         -2.0010     1.5930    -0.2860 c5         1 26A       0.079100
     19 O2          -2.7700     2.6540     0.2080 oh         1 26A      -0.576800
     20 C3          -2.8810     0.5650    -1.0060 c5         1 26A       0.065100
     21 O3          -3.8720     1.1330    -1.8150 oh         1 26A      -0.584800
     22 H101         5.6100     0.6280    -0.7780 h1         1 26A       0.049033
     23 H102         5.9600    -0.1930     0.7450 h1         1 26A       0.049033
     24 H103         6.1880    -1.0390    -0.7890 h1         1 26A       0.049033
     25 H91          4.3620    -2.7590     0.6210 h1         1 26A       0.049033
     26 H92          3.0440    -2.5690    -0.5400 h1         1 26A       0.049033
     27 H93          4.7080    -2.6620    -1.1090 h1         1 26A       0.049033
     28 H2           2.8680     3.1520     0.7910 h5         1 26A       0.046100
     29 H8          -0.9290    -1.9660     0.3050 h5         1 26A       0.072800
     30 H1          -1.3210     1.4070     1.7770 h2         1 26A       0.128700
     31 H4          -4.4020     0.3840     0.5120 h1         1 26A       0.094700
     32 H5'1        -4.6030    -1.5390    -1.0180 h1         1 26A       0.025700
     33 H5'2        -3.0360    -2.1510    -0.4920 h1         1 26A       0.025700
     34 H5          -4.8270    -3.0490     0.7250 ho         1 26A       0.408000
     35 H6          -1.1670     1.9450    -0.9040 h1         1 26A       0.079700
     36 HO'2        -3.4360     2.8680    -0.4570 ho         1 26A       0.425000
     37 H3          -2.2410    -0.1220    -1.5750 h1         1 26A       0.055700
     38 HO'3        -3.4920     1.3410    -2.6750 ho         1 26A       0.419000
@<TRIPOS>BOND
     1     1     2 1   
     2     1    22 1   
     3     1    23 1   
     4     1    24 1   
     5     2     3 1   
     6     2     4 1   
     7     3    25 1   
     8     3    26 1   
     9     3    27 1   
    10     4     5 ar  
    11     4     9 ar  
    12     5     6 ar  
    13     5    10 1   
    14     6     7 ar  
    15     6    12 1   
    16     7     8 ar  
    17     8     9 ar  
    18     8    28 1   
    19    10    11 2   
    20    11    12 1   
    21    11    29 1   
    22    12    13 1   
    23    13    14 1   
    24    13    18 1   
    25    13    30 1   
    26    14    15 1   
    27    15    16 1   
    28    15    20 1   
    29    15    31 1   
    30    16    17 1   
    31    16    32 1   
    32    16    33 1   
    33    17    34 1   
    34    18    19 1   
    35    18    20 1   
    36    18    35 1   
    37    19    36 1   
    38    20    21 1   
    39    20    37 1   
    40    21    38 1   
@<TRIPOS>SUBSTRUCTURE
     1 26A         1 TEMP              0 ****  ****    0 ROOT
