@<TRIPOS>MOLECULE
26A
   38    40     1     0     0
SMALL
No Charge or Current Charge


@<TRIPOS>ATOM
      1 C10          5.7870    -0.4500     0.0510 c3         1 26A       0.208100
      2 N6           4.3670    -0.8300    -0.1620 nh         1 26A      -0.756300
      3 C9           4.1140    -2.1570    -0.7710 c3         1 26A       0.208100
      4 C6           3.3030     0.0750     0.1300 ca         1 26A       0.446900
      5 C5           1.9310    -0.2970     0.2680 ca         1 26A      -0.081600
      6 C4           1.0120     0.6880     0.5520 ca         1 26A       0.115500
      7 N3           1.3610     1.9780     0.7040 nb         1 26A      -0.223000
      8 C2           2.6750     2.2530     0.5650 ca         1 26A       0.181900
      9 N1           3.6580     1.3710     0.2880 nb         1 26A      -0.307000
     10 N7           1.3200    -1.5480     0.1770 nc         1 26A      -0.564100
     11 C8           0.0270    -1.2640     0.4080 cd         1 26A       0.411700
     12 N9          -0.2210     0.0990     0.6390 na         1 26A      -0.310300
     13 C1          -1.5100     0.7390     0.9060 c5         1 26A       0.318300
     14 O4          -2.4940    -0.2900     1.1900 os         1 26A      -0.427000
     15 C11         -3.5840    -0.1830     0.2390 c5         1 26A       0.160300
     16 C7          -4.2140    -1.5770    -0.0370 c3         1 26A       0.162600
     17 O5          -4.9480    -2.0600     1.1050 oh         1 26A      -0.701000
     18 C12         -2.0840     1.5810    -0.2900 c5         1 26A       0.102300
     19 O2          -2.9330     2.6680     0.1190 oh         1 26A      -0.699000
     20 C3          -2.9290     0.4920    -1.0050 c5         1 26A       0.088300
     21 O3          -3.8810     1.0780    -1.9120 oh         1 26A      -0.707000
     22 H101         6.1240     0.2420    -0.7330 h1         1 26A       0.049033
     23 H102         5.9170     0.0340     1.0290 h1         1 26A       0.049033
     24 H103         6.4410    -1.3320     0.0330 h1         1 26A       0.049033
     25 H91          3.7640    -2.8700    -0.0130 h1         1 26A       0.049033
     26 H92          3.3590    -2.0810    -1.5650 h1         1 26A       0.049033
     27 H93          5.0260    -2.5640    -1.2280 h1         1 26A       0.049033
     28 H2           2.9710     3.2940     0.6880 h5         1 26A       0.046100
     29 H8          -0.7780    -1.9910     0.4180 h5         1 26A       0.072800
     30 H1          -1.3560     1.3790     1.7850 h2         1 26A       0.128700
     31 H4          -4.3580     0.4690     0.6650 h1         1 26A       0.094700
     32 H5'1        -4.8870    -1.4890    -0.9000 h1         1 26A       0.025700
     33 H5'2        -3.4160    -2.2800    -0.3090 h1         1 26A       0.025700
     34 H5          -5.2810    -2.9590     0.8740 ho         1 26A       0.507000
     35 H6          -1.2760     1.9490    -0.9380 h1         1 26A       0.079700
     36 HO'2        -3.6690     2.6550    -0.5430 ho         1 26A       0.524000
     37 H3          -2.2810    -0.2250    -1.5300 h1         1 26A       0.055700
     38 HO'3        -3.5140     0.9970    -2.8260 ho         1 26A       0.518000
@<TRIPOS>BOND
     1     1     2 1   
     2     1    22 1   
     3     1    23 1   
     4     1    24 1   
     5     2     3 1   
     6     2     4 1   
     7     3    25 1   
     8     3    26 1   
     9     3    27 1   
    10     4     5 ar  
    11     4     9 ar  
    12     5     6 ar  
    13     5    10 1   
    14     6     7 ar  
    15     6    12 1   
    16     7     8 ar  
    17     8     9 ar  
    18     8    28 1   
    19    10    11 2   
    20    11    12 1   
    21    11    29 1   
    22    12    13 1   
    23    13    14 1   
    24    13    18 1   
    25    13    30 1   
    26    14    15 1   
    27    15    16 1   
    28    15    20 1   
    29    15    31 1   
    30    16    17 1   
    31    16    32 1   
    32    16    33 1   
    33    17    34 1   
    34    18    19 1   
    35    18    20 1   
    36    18    35 1   
    37    19    36 1   
    38    20    21 1   
    39    20    37 1   
    40    21    38 1   
@<TRIPOS>SUBSTRUCTURE
     1 26A         1 TEMP              0 ****  ****    0 ROOT
