@<TRIPOS>MOLECULE
26B
   71    73     1     0     0
SMALL
No Charge or Current Charge


@<TRIPOS>ATOM
      1 N            2.5640    -0.5530     0.8300 ns         1 26B      -0.423900
      2 CA           3.2960    -1.8320     0.6200 c3         1 26B      -0.057300
      3 C            4.1480    -2.2090     1.8640 c          1 26B       0.720000
      4 O            4.3980    -1.3480     2.6990 o          1 26B      -0.721500
      5 OXT          4.4290    -3.3890     2.0210 o          1 26B      -0.721500
      6 C2           4.1770    -1.8260    -0.6590 c3         1 26B       0.178300
      7 O3           4.9850    -0.6080    -0.6320 os         1 26B      -0.480000
      8 C4           6.3970    -0.6710    -0.9670 c3         1 26B       0.201000
      9 C5           6.5870    -1.2290    -2.3990 c3         1 26B      -0.104767
     10 C6           6.8850     0.7930    -0.8930 c3         1 26B      -0.104767
     11 C7           7.1310    -1.5330     0.0920 c3         1 26B      -0.104767
     12 C8           1.2840    -0.2720     0.4050 c          1 26B       0.607700
     13 O9           0.5980    -1.1350    -0.1310 o          1 26B      -0.652100
     14 C10          0.8030     1.1610     0.6230 ca         1 26B      -0.149600
     15 C11          1.7470     2.1790     0.9210 ca         1 26B      -0.070000
     16 C12          1.3450     3.5090     1.1220 ca         1 26B      -0.063000
     17 C13          2.3000     4.5040     1.4140 ca         1 26B      -0.085000
     18 C14          1.8940     5.8350     1.6090 ca         1 26B      -0.132000
     19 C15          0.5350     6.1770     1.5100 ca         1 26B      -0.115000
     20 C16         -0.4190     5.1870     1.2170 ca         1 26B      -0.101000
     21 C17         -0.0150     3.8520     1.0230 ca         1 26B      -0.007000
     22 C18         -0.9630     2.8610     0.7250 ca         1 26B      -0.135000
     23 C19         -0.5760     1.5150     0.5290 ca         1 26B       0.033000
     24 N20         -1.5380     0.5080     0.2330 ns         1 26B      -0.165000
     25 C21         -2.9220     0.4780     0.2630 c          1 26B       0.668100
     26 O22         -3.6380     1.4110     0.6090 o          1 26B      -0.631100
     27 N23         -3.4170    -0.7430    -0.1580 ns         1 26B      -0.179000
     28 C24         -4.7570    -1.2100    -0.2270 ca         1 26B      -0.026000
     29 C25         -5.2390    -1.6990    -1.4640 ca         1 26B      -0.058800
     30 C26         -4.3490    -1.7120    -2.7050 c3         1 26B      -0.053300
     31 C27         -6.5630    -2.1660    -1.5640 ca         1 26B      -0.118500
     32 C28         -7.4110    -2.1620    -0.4450 ca         1 26B      -0.084300
     33 C29         -8.8390    -2.6720    -0.5630 c3         1 26B      -0.038800
     34 C30         -6.9220    -1.7020     0.7880 ca         1 26B      -0.118500
     35 C31         -5.6010    -1.2330     0.9150 ca         1 26B      -0.058800
     36 C32         -5.1180    -0.8060     2.3000 c3         1 26B      -0.053300
     37 HN           3.0640     0.1900     1.3000 hn         1 26B       0.319500
     38 HA           2.5570    -2.6360     0.5170 h1         1 26B       0.068700
     39 H2           4.7710    -2.7570    -0.6590 h1         1 26B       0.067700
     40 H5           5.9830    -0.6670    -3.1220 hc         1 26B       0.037811
     41 H5A          7.6370    -1.1460    -2.7040 hc         1 26B       0.037811
     42 H5B          6.3140    -2.2890    -2.4580 hc         1 26B       0.037811
     43 H6           6.7250     1.2090     0.1090 hc         1 26B       0.037811
     44 H6A          7.9560     0.8590    -1.1210 hc         1 26B       0.037811
     45 H6B          6.3450     1.4200    -1.6140 hc         1 26B       0.037811
     46 H7           6.8580    -2.5920     0.0180 hc         1 26B       0.037811
     47 H7A          8.2160    -1.4650    -0.0480 hc         1 26B       0.037811
     48 H7B          6.9020    -1.1860     1.1060 hc         1 26B       0.037811
     49 H11          2.8090     1.9560     0.9810 ha         1 26B       0.120000
     50 H13          3.3540     4.2480     1.4910 ha         1 26B       0.108000
     51 H14          2.6320     6.6010     1.8350 ha         1 26B       0.101000
     52 H15          0.2210     7.2080     1.6600 ha         1 26B       0.100000
     53 H16         -1.4690     5.4590     1.1410 ha         1 26B       0.110000
     54 H18         -2.0010     3.1620     0.6400 ha         1 26B       0.131000
     55 HN20        -1.1150    -0.3670    -0.0560 hn         1 26B       0.190000
     56 HN23        -2.7220    -1.4050    -0.4780 hn         1 26B       0.163000
     57 H26         -3.4700    -2.3500    -2.5530 hc         1 26B       0.051367
     58 H26A        -4.8800    -2.0920    -3.5850 hc         1 26B       0.051367
     59 H26B        -3.9960    -0.7030    -2.9480 hc         1 26B       0.051367
     60 H27         -6.9370    -2.5350    -2.5170 ha         1 26B       0.103500
     61 H29         -8.8870    -3.7480    -0.3580 hc         1 26B       0.033700
     62 H29A        -9.5050    -2.1650     0.1470 hc         1 26B       0.033700
     63 H29B        -9.2430    -2.5030    -1.5690 hc         1 26B       0.033700
     64 H30         -7.5730    -1.7190     1.6600 ha         1 26B       0.103500
     65 H32         -5.2490     0.2720     2.4490 hc         1 26B       0.051367
     66 H32A        -5.6810    -1.3140     3.0920 hc         1 26B       0.051367
     67 H32B        -4.0610    -1.0490     2.4600 hc         1 26B       0.051367
     68 C1           3.3350    -1.8090    -1.9580 c3         1 26B      -0.107100
     69 H1           2.5780    -2.6020    -1.9320 hc         1 26B       0.026700
     70 H1A          2.8210    -0.8490    -2.0820 hc         1 26B       0.026700
     71 H1B          3.9570    -1.9820    -2.8420 hc         1 26B       0.026700
@<TRIPOS>BOND
     1     1     2 1   
     2     1    12 1   
     3     1    37 1   
     4     2     3 1   
     5     2     6 1   
     6     2    38 1   
     7     3     4 1   
     8     3     5 1   
     9     6     7 1   
    10     6    39 1   
    11     6    68 1   
    12     7     8 1   
    13     8     9 1   
    14     8    10 1   
    15     8    11 1   
    16     9    40 1   
    17     9    41 1   
    18     9    42 1   
    19    10    43 1   
    20    10    44 1   
    21    10    45 1   
    22    11    46 1   
    23    11    47 1   
    24    11    48 1   
    25    12    13 2   
    26    12    14 1   
    27    14    15 ar  
    28    14    23 ar  
    29    15    16 ar  
    30    15    49 1   
    31    16    17 ar  
    32    16    21 ar  
    33    17    18 ar  
    34    17    50 1   
    35    18    19 ar  
    36    18    51 1   
    37    19    20 ar  
    38    19    52 1   
    39    20    21 ar  
    40    20    53 1   
    41    21    22 ar  
    42    22    23 ar  
    43    22    54 1   
    44    23    24 1   
    45    24    25 1   
    46    24    55 1   
    47    25    26 2   
    48    25    27 1   
    49    27    28 1   
    50    27    56 1   
    51    28    29 ar  
    52    28    35 ar  
    53    29    30 1   
    54    29    31 ar  
    55    30    57 1   
    56    30    58 1   
    57    30    59 1   
    58    31    32 ar  
    59    31    60 1   
    60    32    33 1   
    61    32    34 ar  
    62    33    61 1   
    63    33    62 1   
    64    33    63 1   
    65    34    35 ar  
    66    34    64 1   
    67    35    36 1   
    68    36    65 1   
    69    36    66 1   
    70    36    67 1   
    71    68    69 1   
    72    68    70 1   
    73    68    71 1   
@<TRIPOS>SUBSTRUCTURE
     1 26B         1 TEMP              0 ****  ****    0 ROOT
