@<TRIPOS>MOLECULE
26C
   24    25     1     0     0
SMALL
No Charge or Current Charge


@<TRIPOS>ATOM
      1 O17          4.7870    -0.7670     0.7980 o          1 26C      -0.718500
      2 C15          4.2060    -0.0120     0.0300 c          1 26C       0.711600
      3 O16          4.7980     0.7400    -0.7320 o          1 26C      -0.718500
      4 C6           2.6840    -0.0080     0.0220 ca         1 26C      -0.117600
      5 C1           1.9520    -0.8590     0.8820 ca         1 26C      -0.092500
      6 C5           1.9650     0.8460    -0.8470 ca         1 26C      -0.092500
      7 C4           0.5590     0.8470    -0.8520 ca         1 26C      -0.111000
      8 C3          -0.1780    -0.0020     0.0060 cp         1 26C      -0.091000
      9 C2           0.5460    -0.8540     0.8720 ca         1 26C      -0.111000
     10 C7          -1.6770     0.0020    -0.0020 cp         1 26C      -0.074000
     11 C12         -2.4180    -1.2040    -0.1250 ca         1 26C       0.198500
     12 F2          -1.7820    -2.3900    -0.2630 f          1 26C      -0.166000
     13 C11         -3.8230    -1.1990    -0.1340 ca         1 26C      -0.183000
     14 C10         -4.5270     0.0080    -0.0170 ca         1 26C      -0.078000
     15 C9          -3.8180     1.2130     0.1060 ca         1 26C      -0.183000
     16 C8          -2.4130     1.2110     0.1130 ca         1 26C       0.198500
     17 F1          -1.7740     2.3940     0.2580 f          1 26C      -0.166000
     18 H1           2.4710    -1.5290     1.5640 ha         1 26C       0.129500
     19 H5           2.4940     1.5130    -1.5240 ha         1 26C       0.129500
     20 H4           0.0340     1.5090    -1.5360 ha         1 26C       0.090000
     21 H2           0.0110    -1.5140     1.5500 ha         1 26C       0.090000
     22 H11         -4.3640    -2.1370    -0.2340 ha         1 26C       0.124000
     23 H10         -5.6160     0.0110    -0.0230 ha         1 26C       0.107000
     24 H9          -4.3560     2.1530     0.2010 ha         1 26C       0.124000
@<TRIPOS>BOND
     1     1     2 1   
     2     2     3 1   
     3     2     4 1   
     4     4     5 ar  
     5     4     6 ar  
     6     5     9 ar  
     7     5    18 1   
     8     6     7 ar  
     9     6    19 1   
    10     7     8 ar  
    11     7    20 1   
    12     8     9 ar  
    13     8    10 1   
    14     9    21 1   
    15    10    11 ar  
    16    10    16 ar  
    17    11    12 1   
    18    11    13 ar  
    19    13    14 ar  
    20    13    22 1   
    21    14    15 ar  
    22    14    23 1   
    23    15    16 ar  
    24    15    24 1   
    25    16    17 1   
@<TRIPOS>SUBSTRUCTURE
     1 26C         1 TEMP              0 ****  ****    0 ROOT
