@<TRIPOS>MOLECULE
26C
   24    25     1     0     0
SMALL
bcc


@<TRIPOS>ATOM
      1 O17          4.7060    -0.6800     0.9250 o          1 26C      -0.823800
      2 C15          4.1560    -0.0130     0.0280 c          1 26C       0.922200
      3 O16          4.7190     0.6480    -0.8640 o          1 26C      -0.823800
      4 C6           2.6310    -0.0070     0.0220 ca         1 26C      -0.117600
      5 C1           1.9100    -0.7380     0.9630 ca         1 26C      -0.110500
      6 C5           1.9230     0.7270    -0.9260 ca         1 26C      -0.110500
      7 C4           0.5370     0.7350    -0.9340 ca         1 26C      -0.129000
      8 C3          -0.1780    -0.0010     0.0070 cp         1 26C      -0.091000
      9 C2           0.5240    -0.7400     0.9560 ca         1 26C      -0.129000
     10 C7          -1.6570     0.0020    -0.0020 cp         1 26C      -0.074000
     11 C12         -2.3970    -1.1440    -0.2650 ca         1 26C       0.163400
     12 F2          -1.7280    -2.2740    -0.5270 f          1 26C      -0.130900
     13 C11         -3.7770    -1.1700    -0.2820 ca         1 26C      -0.201000
     14 C10         -4.4610     0.0080    -0.0180 ca         1 26C      -0.096000
     15 C9          -3.7750     1.1820     0.2540 ca         1 26C      -0.201000
     16 C8          -2.3950     1.1510     0.2530 ca         1 26C       0.163400
     17 F1          -1.7240     2.2780     0.5230 f          1 26C      -0.130900
     18 H1           2.4410    -1.3100     1.7120 ha         1 26C       0.147500
     19 H5           2.4640     1.2960    -1.6700 ha         1 26C       0.147500
     20 H4           0.0070     1.3040    -1.6890 ha         1 26C       0.108000
     21 H2          -0.0160    -1.3070     1.7050 ha         1 26C       0.108000
     22 H11         -4.3040    -2.0890    -0.5010 ha         1 26C       0.142000
     23 H10         -5.5430     0.0100    -0.0240 ha         1 26C       0.125000
     24 H9          -4.3010     2.1030     0.4670 ha         1 26C       0.142000
@<TRIPOS>BOND
     1     1     2 1   
     2     2     3 1   
     3     2     4 1   
     4     4     5 ar  
     5     4     6 ar  
     6     5     9 ar  
     7     5    18 1   
     8     6     7 ar  
     9     6    19 1   
    10     7     8 ar  
    11     7    20 1   
    12     8     9 ar  
    13     8    10 1   
    14     9    21 1   
    15    10    11 ar  
    16    10    16 ar  
    17    11    12 1   
    18    11    13 ar  
    19    13    14 ar  
    20    13    22 1   
    21    14    15 ar  
    22    14    23 1   
    23    15    16 ar  
    24    15    24 1   
    25    16    17 1   
@<TRIPOS>SUBSTRUCTURE
     1 26C         1 TEMP              0 ****  ****    0 ROOT
