@<TRIPOS>MOLECULE
26D
   15    15     1     0     0
SMALL
abcg2


@<TRIPOS>ATOM
      1 N1           2.3140    -1.0100    -0.1180 nv         1 26D      -1.055900
      2 C3           1.1780    -0.2560    -0.0360 ca         1 26D       0.635900
      3 N3           0.0270    -0.9230     0.0150 nb         1 26D      -0.817000
      4 C5           1.2390     1.1450    -0.0570 ca         1 26D      -0.283000
      5 C6           0.0380     1.8330    -0.0310 ca         1 26D      -0.001000
      6 C4          -1.1670     1.1560     0.0170 ca         1 26D      -0.283000
      7 C2          -1.1190    -0.2440     0.0440 ca         1 26D       0.635900
      8 N2          -2.2610    -0.9850     0.1510 nv         1 26D      -1.055900
      9 HN11         3.1820    -0.5710     0.1410 hn         1 26D       0.468500
     10 HN12         2.2340    -1.9690     0.1750 hn         1 26D       0.468500
     11 H5           2.1880     1.6620    -0.0970 ha         1 26D       0.120500
     12 H6           0.0430     2.9160    -0.0490 ha         1 26D       0.110000
     13 H4          -2.1120     1.6830     0.0380 ha         1 26D       0.120500
     14 HN21        -3.1250    -0.5490    -0.1240 hn         1 26D       0.468500
     15 HN22        -2.1890    -1.9550    -0.1100 hn         1 26D       0.468500
@<TRIPOS>BOND
     1     1     2 1   
     2     1     9 1   
     3     1    10 1   
     4     2     3 ar  
     5     2     4 ar  
     6     3     7 ar  
     7     4     5 ar  
     8     4    11 1   
     9     5     6 ar  
    10     5    12 1   
    11     6     7 ar  
    12     6    13 1   
    13     7     8 1   
    14     8    14 1   
    15     8    15 1   
@<TRIPOS>SUBSTRUCTURE
     1 26D         1 TEMP              0 ****  ****    0 ROOT
