@<TRIPOS>MOLECULE
26D
   15    15     1     0     0
SMALL
No Charge or Current Charge


@<TRIPOS>ATOM
      1 N1           2.2060    -1.0310    -0.1060 nv         1 26D      -1.055900
      2 C3           1.1450    -0.2310    -0.0650 ca         1 26D       0.635900
      3 N3           0.0270    -0.9320     0.0150 nb         1 26D      -0.817000
      4 C5           1.2300     1.1630    -0.0890 ca         1 26D      -0.283000
      5 C6           0.0390     1.9020    -0.0330 ca         1 26D      -0.001000
      6 C4          -1.1580     1.1760     0.0490 ca         1 26D      -0.283000
      7 C2          -1.0850    -0.2190     0.0710 ca         1 26D       0.635900
      8 N2          -2.1530    -1.0090     0.1400 nv         1 26D      -1.055900
      9 HN11         3.0900    -0.6370     0.1920 hn         1 26D       0.468500
     10 HN12         2.0230    -1.9900     0.1610 hn         1 26D       0.468500
     11 H5           2.1920     1.6610    -0.1540 ha         1 26D       0.120500
     12 H6           0.0440     2.9910    -0.0510 ha         1 26D       0.110000
     13 H4          -2.1160     1.6830     0.0960 ha         1 26D       0.120500
     14 HN21        -3.0340    -0.6170    -0.1720 hn         1 26D       0.468500
     15 HN22        -1.9780    -1.9770    -0.0950 hn         1 26D       0.468500
@<TRIPOS>BOND
     1     1     2 1   
     2     1     9 1   
     3     1    10 1   
     4     2     3 ar  
     5     2     4 ar  
     6     3     7 ar  
     7     4     5 ar  
     8     4    11 1   
     9     5     6 ar  
    10     5    12 1   
    11     6     7 ar  
    12     6    13 1   
    13     7     8 1   
    14     8    14 1   
    15     8    15 1   
@<TRIPOS>SUBSTRUCTURE
     1 26D         1 TEMP              0 ****  ****    0 ROOT
