@<TRIPOS>MOLECULE
26F
   70    73     1     0     0
SMALL
No Charge or Current Charge


@<TRIPOS>ATOM
      1 C1          -3.9220    -1.1790     1.5160 ca         1 26F      -0.056500
      2 C2          -4.3610     1.0510     2.3830 ca         1 26F      -0.056500
      3 C3          -5.1880    -1.1890     0.9070 ca         1 26F      -0.175000
      4 C4          -5.6280     1.0400     1.7730 ca         1 26F      -0.175000
      5 C5          -0.9260    -4.7880    -0.8820 ca         1 26F      -0.119500
      6 C6           1.4980    -4.7280    -1.0730 ca         1 26F      -0.119500
      7 C7          -0.9970    -3.4420    -1.2770 ca         1 26F       0.005500
      8 C8           1.4310    -3.3800    -1.4690 ca         1 26F       0.005500
      9 C9           3.2100     4.4060    -0.3530 ca         1 26F      -0.352000
     10 C10         -3.5030    -0.0580     2.2590 ca         1 26F      -0.160300
     11 C11         -6.0460    -0.0850     1.0300 ca         1 26F       0.146100
     12 C12          0.3130    -5.4400    -0.7760 ca         1 26F       0.142100
     13 C13          0.1850    -2.7340    -1.5690 ca         1 26F      -0.230500
     14 C14          2.2450     3.5200     0.1240 ca         1 26F       0.424900
     15 C15          2.8590     5.7490    -0.4650 ca         1 26F       0.410300
     16 C16          0.7600     5.2590     0.3360 ca         1 26F       0.425300
     17 C17         -0.3660    -0.2940     1.1310 c          1 26F       0.600100
     18 C18          3.2080     1.3890    -0.8210 c6         1 26F       0.206800
     19 C19          2.1690     0.6930    -1.7460 c6         1 26F       0.178800
     20 C20          1.6380     1.2420     1.0640 c6         1 26F       0.212800
     21 C21          0.5880     0.5020     0.1680 c6         1 26F       0.104500
     22 C22         -8.2290     0.9240     0.4740 c3         1 26F       0.147900
     23 C23          3.5260     8.0290    -1.0790 c3         1 26F       0.161900
     24 C24         -0.9190     7.0390     0.5990 c3         1 26F       0.165900
     25 C25         -2.1290    -0.0430     2.9130 c3         1 26F       0.153300
     26 C26          1.4800    -7.5750    -0.2210 c3         1 26F       0.517000
     27 N27          1.0220     3.9490     0.4750 nb         1 26F      -0.303000
     28 N28          1.6330     6.1780    -0.1230 nb         1 26F      -0.369000
     29 N29          2.5250     2.1430     0.2680 nh         1 26F      -0.755300
     30 N30          1.2180    -0.2210    -1.0260 n3         1 26F      -0.739500
     31 N31         -1.1180     0.4810     1.9960 ns         1 26F      -0.481900
     32 O32         -0.5170    -1.5070     1.0920 o          1 26F      -0.602100
     33 O33          0.7160    -0.9410    -3.4240 o          1 26F      -0.544000
     34 O34         -1.2170    -0.4460    -1.8490 o          1 26F      -0.544000
     35 O35         -7.2770    -0.1530     0.4090 os         1 26F      -0.340100
     36 O37          3.8120     6.6230    -0.9340 os         1 26F      -0.454300
     37 O38         -0.5060     5.6610     0.7020 os         1 26F      -0.438300
     38 F39          2.3170    -7.0730     0.7160 f          1 26F      -0.106667
     39 F40          1.1520    -8.8240     0.1760 f          1 26F      -0.106667
     40 F41          2.1720    -7.6990    -1.3760 f          1 26F      -0.106667
     41 S42          0.1160    -1.0130    -2.0860 sy         1 26F       1.154600
     42 H1          -3.2650    -2.0400     1.4090 ha         1 26F       0.121500
     43 H2          -4.0470     1.9240     2.9510 ha         1 26F       0.121500
     44 H3          -5.5050    -2.0570     0.3350 ha         1 26F       0.123500
     45 H4          -6.2680     1.9110     1.8870 ha         1 26F       0.123500
     46 H5          -1.8390    -5.3310    -0.6540 ha         1 26F       0.137500
     47 H6           2.4760    -5.1930    -1.0050 ha         1 26F       0.137500
     48 H7          -1.9680    -2.9540    -1.3490 ha         1 26F       0.134500
     49 H8           2.3480    -2.8390    -1.6940 ha         1 26F       0.134500
     50 H9           4.2080     4.0770    -0.6140 ha         1 26F       0.147000
     51 H18          3.8710     0.6240    -0.3900 h1         1 26F       0.071700
     52 H18A         3.8440     2.0440    -1.4320 h1         1 26F       0.071700
     53 H19          1.6090     1.4780    -2.2770 h1         1 26F       0.067700
     54 H19A         2.7390     0.1390    -2.5060 h1         1 26F       0.067700
     55 H20          1.1390     1.8010     1.8700 h1         1 26F       0.089700
     56 H20A         2.2510     0.4830     1.5730 h1         1 26F       0.089700
     57 H21         -0.0600     1.2940    -0.2340 h1         1 26F       0.068700
     58 H22         -7.8120     1.8400     0.0370 h1         1 26F       0.040700
     59 H22A        -9.1360     0.6630    -0.0850 h1         1 26F       0.040700
     60 H22B        -8.5170     1.1280     1.5130 h1         1 26F       0.040700
     61 H23          3.2570     8.4750    -0.1120 h1         1 26F       0.049367
     62 H23A         4.4050     8.5600    -1.4640 h1         1 26F       0.049367
     63 H23B         2.6970     8.1890    -1.7800 h1         1 26F       0.049367
     64 H24         -0.8590     7.3900    -0.4390 h1         1 26F       0.049033
     65 H24A        -1.9560     7.1530     0.9370 h1         1 26F       0.049033
     66 H24B        -0.2870     7.6850     1.2230 h1         1 26F       0.049033
     67 H25         -2.1520     0.5890     3.8100 h1         1 26F       0.063200
     68 H25A        -1.8530    -1.0570     3.2320 h1         1 26F       0.063200
     69 HN31        -1.0090     1.4870     1.9350 hn         1 26F       0.326500
     70 O36          0.2970    -6.7660    -0.3800 os         1 26F      -0.407100
@<TRIPOS>BOND
     1     1     3 ar  
     2     1    10 ar  
     3     1    42 1   
     4     2     4 ar  
     5     2    10 ar  
     6     2    43 1   
     7     3    11 ar  
     8     3    44 1   
     9     4    11 ar  
    10     4    45 1   
    11     5     7 ar  
    12     5    12 ar  
    13     5    46 1   
    14     6     8 ar  
    15     6    12 ar  
    16     6    47 1   
    17     7    13 ar  
    18     7    48 1   
    19     8    13 ar  
    20     8    49 1   
    21     9    14 ar  
    22     9    15 ar  
    23     9    50 1   
    24    10    25 1   
    25    11    35 1   
    26    12    70 1   
    27    13    41 1   
    28    14    27 ar  
    29    14    29 1   
    30    15    28 ar  
    31    15    36 1   
    32    16    27 ar  
    33    16    28 ar  
    34    16    37 1   
    35    17    21 1   
    36    17    31 1   
    37    17    32 2   
    38    18    19 1   
    39    18    29 1   
    40    18    51 1   
    41    18    52 1   
    42    19    30 1   
    43    19    53 1   
    44    19    54 1   
    45    20    21 1   
    46    20    29 1   
    47    20    55 1   
    48    20    56 1   
    49    21    30 1   
    50    21    57 1   
    51    22    35 1   
    52    22    58 1   
    53    22    59 1   
    54    22    60 1   
    55    23    36 1   
    56    23    61 1   
    57    23    62 1   
    58    23    63 1   
    59    24    37 1   
    60    24    64 1   
    61    24    65 1   
    62    24    66 1   
    63    25    31 1   
    64    25    67 1   
    65    25    68 1   
    66    26    38 1   
    67    26    39 1   
    68    26    40 1   
    69    26    70 1   
    70    30    41 1   
    71    31    69 1   
    72    33    41 2   
    73    34    41 2   
@<TRIPOS>SUBSTRUCTURE
     1 26F         1 TEMP              0 ****  ****    0 ROOT
