@<TRIPOS>MOLECULE
26G
   35    36     1     0     0
SMALL
No Charge or Current Charge


@<TRIPOS>ATOM
      1 CM2          5.3460     0.9750    -1.1740 c3         1 26G      -0.135400
      2 C02         -4.2210     1.6590    -0.0170 c3         1 26G       0.165600
      3 C2          -0.5050    -1.7950    -0.7280 ca         1 26G      -0.096000
      4 C5          -2.8790    -0.4990     0.0610 ca         1 26G      -0.079300
      5 C4          -1.7490    -0.4850     0.9010 ca         1 26G      -0.116000
      6 C01         -0.5570    -1.1300     0.5120 ca         1 26G      -0.082300
      7 C7A          0.6670    -1.1110     1.4220 c3         1 26G       0.034200
      8 C4A          2.0050     0.8060     0.3290 ca         1 26G       0.402900
      9 N3A          3.0950     1.2970    -0.2760 nb         1 26G      -0.279000
     10 C2A          4.1040     0.4290    -0.4920 ca         1 26G       0.181300
     11 N1A          4.1160    -0.8780    -0.1570 nb         1 26G      -0.220000
     12 C6A          3.0130    -1.3580     0.4510 ca         1 26G       0.138900
     13 C5A          1.9010    -0.5380     0.7250 ca         1 26G      -0.266300
     14 C28         -2.8120    -1.1620    -1.1790 ca         1 26G      -0.104000
     15 C30         -1.6290    -1.8100    -1.5720 ca         1 26G      -0.104000
     16 O31         -5.4440     2.2740     0.4060 oh         1 26G      -0.663000
     17 H1           6.0460     1.3830    -0.4360 hc         1 26G       0.057367
     18 H2           5.8710     0.1960    -1.7390 hc         1 26G       0.057367
     19 H3           5.0960     1.7780    -1.8780 hc         1 26G       0.057367
     20 H4           0.0720     1.3220     0.6600 hn         1 26G       0.495500
     21 H5           1.0550     2.5810     0.0140 hn         1 26G       0.495500
     22 H6          -3.3600     2.2130     0.3790 h1         1 26G       0.018200
     23 H7          -4.1520     1.6650    -1.1130 h1         1 26G       0.018200
     24 H8          -4.2510     0.1990     1.5790 hc         1 26G       0.061200
     25 H9          -5.0340    -0.3430     0.1050 hc         1 26G       0.061200
     26 H10          0.4070    -2.2990    -1.0400 ha         1 26G       0.118000
     27 H11         -1.8000     0.0260     1.8600 ha         1 26G       0.104000
     28 H12          0.4610    -0.5330     2.3320 hc         1 26G       0.052200
     29 H13          0.8690    -2.1320     1.7680 hc         1 26G       0.052200
     30 H14          3.0240    -2.4120     0.7220 h4         1 26G       0.015100
     31 H15         -3.6770    -1.1770    -1.8390 ha         1 26G       0.114000
     32 H16         -1.5820    -2.3230    -2.5300 ha         1 26G       0.115000
     33 H17         -5.4340     3.1950     0.0610 ho         1 26G       0.444000
     34 N4A          1.0040     1.7010     0.5190 nv         1 26G      -1.077900
     35 C6          -4.1620     0.2030     0.4860 c3         1 26G      -0.037100
@<TRIPOS>BOND
     1     1    10 1   
     2     1    17 1   
     3     1    18 1   
     4     1    19 1   
     5     2    16 1   
     6     2    22 1   
     7     2    23 1   
     8     2    35 1   
     9     3     6 ar  
    10     3    15 ar  
    11     3    26 1   
    12     4     5 ar  
    13     4    14 ar  
    14     4    35 1   
    15     5     6 ar  
    16     5    27 1   
    17     6     7 1   
    18     7    13 1   
    19     7    28 1   
    20     7    29 1   
    21     8     9 ar  
    22     8    13 ar  
    23     8    34 1   
    24     9    10 ar  
    25    10    11 ar  
    26    11    12 ar  
    27    12    13 ar  
    28    12    30 1   
    29    14    15 ar  
    30    14    31 1   
    31    15    32 1   
    32    16    33 1   
    33    20    34 1   
    34    21    34 1   
    35    24    35 1   
    36    25    35 1   
@<TRIPOS>SUBSTRUCTURE
     1 26G         1 TEMP              0 ****  ****    0 ROOT
