@<TRIPOS>MOLECULE
26G
   35    36     1     0     0
SMALL
bcc


@<TRIPOS>ATOM
      1 CM2          5.2250     0.9970    -1.2260 c3         1 26G      -0.135400
      2 C02         -4.0270     1.6600     0.0000 c3         1 26G       0.142400
      3 C2          -0.5230    -1.8500    -0.7150 ca         1 26G      -0.114000
      4 C5          -2.8890    -0.5560     0.0150 ca         1 26G      -0.079300
      5 C4          -1.7660    -0.5180     0.8400 ca         1 26G      -0.134000
      6 C01         -0.5800    -1.1510     0.4900 ca         1 26G      -0.082300
      7 C7A          0.6290    -1.0910     1.3960 c3         1 26G       0.034200
      8 C4A          1.9380     0.8290     0.3200 ca         1 26G       0.731200
      9 N3A          3.0250     1.2860    -0.3010 nb         1 26G      -0.805000
     10 C2A          4.0180     0.4370    -0.5390 ca         1 26G       0.707300
     11 N1A          4.0320    -0.8440    -0.2070 nb         1 26G      -0.746000
     12 C6A          2.9380    -1.2950     0.4170 ca         1 26G       0.467200
     13 C5A          1.8420    -0.5270     0.7170 ca         1 26G      -0.396900
     14 C28         -2.8100    -1.2580    -1.1830 ca         1 26G      -0.122000
     15 C30         -1.6340    -1.9050    -1.5420 ca         1 26G      -0.122000
     16 O31         -5.2170     2.3160     0.3720 oh         1 26G      -0.600800
     17 H1           5.7550     1.6800    -0.5610 hc         1 26G       0.057367
     18 H2           5.9100     0.2050    -1.5200 hc         1 26G       0.057367
     19 H3           4.9400     1.5670    -2.1100 hc         1 26G       0.057367
     20 H4           0.1420     1.4670     1.0940 hn         1 26G       0.440300
     21 H5           1.0910     2.6760     0.3330 hn         1 26G       0.440300
     22 H6          -3.1510     2.0990     0.4960 h1         1 26G       0.018200
     23 H7          -3.8460     1.7290    -1.0810 h1         1 26G       0.018200
     24 H8          -4.3060     0.1210     1.4710 hc         1 26G       0.061200
     25 H9          -5.0030    -0.2510    -0.1030 hc         1 26G       0.061200
     26 H10          0.3910    -2.3540    -1.0060 ha         1 26G       0.136000
     27 H11         -1.8210     0.0190     1.7830 ha         1 26G       0.122000
     28 H12          0.3840    -0.5110     2.2910 hc         1 26G       0.052200
     29 H13          0.8700    -2.0960     1.7510 hc         1 26G       0.052200
     30 H14          2.9420    -2.3450     0.6950 h4         1 26G       0.015100
     31 H15         -3.6720    -1.2990    -1.8380 ha         1 26G       0.132000
     32 H16         -1.5850    -2.4560    -2.4730 ha         1 26G       0.133000
     33 H17         -5.1420     3.2410     0.1200 ho         1 26G       0.405000
     34 N4A          0.9420     1.7020     0.5340 nv         1 26G      -0.967500
     35 C6          -4.1360     0.1930     0.3930 c3         1 26G      -0.037100
@<TRIPOS>BOND
     1     1    10 1   
     2     1    17 1   
     3     1    18 1   
     4     1    19 1   
     5     2    16 1   
     6     2    22 1   
     7     2    23 1   
     8     2    35 1   
     9     3     6 ar  
    10     3    15 ar  
    11     3    26 1   
    12     4     5 ar  
    13     4    14 ar  
    14     4    35 1   
    15     5     6 ar  
    16     5    27 1   
    17     6     7 1   
    18     7    13 1   
    19     7    28 1   
    20     7    29 1   
    21     8     9 ar  
    22     8    13 ar  
    23     8    34 1   
    24     9    10 ar  
    25    10    11 ar  
    26    11    12 ar  
    27    12    13 ar  
    28    12    30 1   
    29    14    15 ar  
    30    14    31 1   
    31    15    32 1   
    32    16    33 1   
    33    20    34 1   
    34    21    34 1   
    35    24    35 1   
    36    25    35 1   
@<TRIPOS>SUBSTRUCTURE
     1 26G         1 TEMP              0 ****  ****    0 ROOT
