@<TRIPOS>MOLECULE
26J
   55    58     1     0     0
SMALL
No Charge or Current Charge


@<TRIPOS>ATOM
      1 NBE         -2.4990    -2.8690     0.2000 nu         1 26J      -0.670700
      2 OAE         -3.2140    -3.8880    -0.5670 oh         1 26J      -0.447300
      3 CAX         -3.0660    -1.5780     0.2260 ca         1 26J       0.230000
      4 CBB         -2.2290    -0.4350     0.2350 ca         1 26J      -0.098000
      5 SAV         -0.4450    -0.6700     0.2730 ss         1 26J      -0.073200
      6 CAY          0.0390     0.9100    -0.4010 cc         1 26J       0.773100
      7 NAR         -0.6430     2.0100    -0.1790 nd         1 26J      -0.790100
      8 CAZ         -1.9510     2.0770     0.2700 c          1 26J       0.748100
      9 OAD         -2.3910     3.1710     0.5840 o          1 26J      -0.528100
     10 CBA         -2.8020     0.8480     0.2820 ca         1 26J      -0.163600
     11 CAK         -4.2070     0.9890     0.3240 ca         1 26J      -0.015000
     12 CAW         -5.0490    -0.1390     0.3240 ca         1 26J      -0.186300
     13 CBG         -6.5720     0.0300     0.3590 c3         1 26J       0.359300
     14 FAG         -7.0760     0.2030    -0.8830 f          1 26J      -0.110333
     15 FAH         -7.2010    -1.0410     0.8950 f          1 26J      -0.110333
     16 FAF         -6.9500     1.1030     1.0910 f          1 26J      -0.110333
     17 CAJ         -4.4650    -1.4200     0.2660 ca         1 26J      -0.064000
     18 NBF          1.2880     1.0390    -0.9850 nh         1 26J      -0.727600
     19 CAM          2.1490    -0.1360    -1.3260 c6         1 26J       0.214300
     20 CAO          3.3000    -0.3100    -0.2860 c6         1 26J       0.148800
     21 NBH          4.1300     0.9310    -0.1370 n3         1 26J      -0.732600
     22 CAN          3.2550     2.1100     0.1660 c6         1 26J       0.148800
     23 CAL          2.1020     2.2930    -0.8690 c6         1 26J       0.214300
     24 C30          5.2470     0.8000     0.8340 c3         1 26J       0.176800
     25 C31          6.3350    -0.2670     0.4940 c6         1 26J      -0.059700
     26 C32          7.4410    -0.2940     1.5870 c6         1 26J      -0.069900
     27 C33          8.5280    -1.3520     1.2730 c6         1 26J      -0.072900
     28 C34          9.1500    -1.1180    -0.1250 c6         1 26J      -0.075400
     29 C35          8.0590    -1.0920    -1.2220 c6         1 26J      -0.072900
     30 C36          6.9700    -0.0360    -0.9090 c6         1 26J      -0.069900
     31 H1          -1.4930    -2.8910    -0.0140 hn         1 26J       0.463000
     32 H2          -3.1450    -4.7380    -0.0610 ho         1 26J       0.467000
     33 H3          -4.6470     1.9860     0.3490 ha         1 26J       0.162000
     34 H4          -5.0970    -2.3040     0.2630 ha         1 26J       0.148000
     35 H5           1.5780    -1.0710    -1.4050 h1         1 26J       0.075450
     36 H6           2.6050     0.0220    -2.3150 h1         1 26J       0.075450
     37 H7           2.8590    -0.5900     0.6820 h1         1 26J       0.046700
     38 H8           3.9210    -1.1550    -0.6130 h1         1 26J       0.046700
     39 H10          2.8080     2.0000     1.1650 h1         1 26J       0.046700
     40 H11          3.8540     3.0320     0.1840 h1         1 26J       0.046700
     41 H12          2.5460     2.5370    -1.8450 h1         1 26J       0.075450
     42 H13          1.5010     3.1650    -0.5770 h1         1 26J       0.075450
     43 H14          5.7600     1.7670     0.9210 h1         1 26J       0.034700
     44 H15          4.8420     0.5660     1.8280 h1         1 26J       0.034700
     45 H16          5.8400    -1.2470     0.5000 hc         1 26J       0.043700
     46 H17          7.9090     0.6980     1.6700 hc         1 26J       0.041450
     47 H18          6.9940    -0.5090     2.5670 hc         1 26J       0.041450
     48 H19          9.3140    -1.3190     2.0400 hc         1 26J       0.038200
     49 H20          8.0890    -2.3590     1.3200 hc         1 26J       0.038200
     50 H21          9.7030    -0.1690    -0.1300 hc         1 26J       0.038700
     51 H22          9.8820    -1.9070    -0.3450 hc         1 26J       0.038700
     52 H23          8.5170    -0.8770    -2.1980 hc         1 26J       0.038200
     53 H24          7.5960    -2.0850    -1.3080 hc         1 26J       0.038200
     54 H25          6.1960    -0.0740    -1.6870 hc         1 26J       0.041450
     55 H26          7.4090     0.9710    -0.9570 hc         1 26J       0.041450
@<TRIPOS>BOND
     1     1     2 1   
     2     1     3 1   
     3     1    31 1   
     4     2    32 1   
     5     3     4 ar  
     6     3    17 ar  
     7     4     5 1   
     8     4    10 ar  
     9     5     6 1   
    10     6     7 2   
    11     6    18 1   
    12     7     8 1   
    13     8     9 2   
    14     8    10 1   
    15    10    11 ar  
    16    11    12 ar  
    17    11    33 1   
    18    12    13 1   
    19    12    17 ar  
    20    13    14 1   
    21    13    15 1   
    22    13    16 1   
    23    17    34 1   
    24    18    19 1   
    25    18    23 1   
    26    19    20 1   
    27    19    35 1   
    28    19    36 1   
    29    20    21 1   
    30    20    37 1   
    31    20    38 1   
    32    21    22 1   
    33    21    24 1   
    34    22    23 1   
    35    22    39 1   
    36    22    40 1   
    37    23    41 1   
    38    23    42 1   
    39    24    25 1   
    40    24    43 1   
    41    24    44 1   
    42    25    26 1   
    43    25    30 1   
    44    25    45 1   
    45    26    27 1   
    46    26    46 1   
    47    26    47 1   
    48    27    28 1   
    49    27    48 1   
    50    27    49 1   
    51    28    29 1   
    52    28    50 1   
    53    28    51 1   
    54    29    30 1   
    55    29    52 1   
    56    29    53 1   
    57    30    54 1   
    58    30    55 1   
@<TRIPOS>SUBSTRUCTURE
     1 26J         1 TEMP              0 ****  ****    0 ROOT
