@<TRIPOS>MOLECULE
26J
   55    58     1     0     0
SMALL
abcg2


@<TRIPOS>ATOM
      1 NBE         -2.7400    -2.8390    -0.2710 nu         1 26J      -0.670700
      2 OAE         -3.7180    -3.8130    -0.3300 oh         1 26J      -0.447300
      3 CAX         -3.2420    -1.5460    -0.1300 ca         1 26J       0.230000
      4 CBB         -2.3300    -0.4730    -0.1670 ca         1 26J      -0.098000
      5 SAV         -0.6480    -0.9090    -0.3560 ss         1 26J      -0.073200
      6 CAY          0.1020     0.6850    -0.4860 cc         1 26J       0.773100
      7 NAR         -0.5140     1.8160    -0.3380 nd         1 26J      -0.790100
      8 CAZ         -1.8310     1.9940    -0.0780 c          1 26J       0.748100
      9 OAD         -2.2670     3.1220     0.0950 o          1 26J      -0.528100
     10 CBA         -2.7630     0.8350    -0.0170 ca         1 26J      -0.163600
     11 CAK         -4.1160     1.0880     0.2080 ca         1 26J      -0.015000
     12 CAW         -5.0050     0.0380     0.2820 ca         1 26J      -0.186300
     13 CBG         -6.4640     0.2780     0.5120 c3         1 26J       0.359300
     14 FAG         -7.1880    -0.0150    -0.5780 f          1 26J      -0.110333
     15 FAH         -6.9420    -0.4880     1.5020 f          1 26J      -0.110333
     16 FAF         -6.7330     1.5460     0.8310 f          1 26J      -0.110333
     17 CAJ         -4.5780    -1.2760     0.1050 ca         1 26J      -0.064000
     18 NBF          1.4080     0.6610    -0.7410 nh         1 26J      -0.727600
     19 CAM          2.2300    -0.5290    -0.8960 c6         1 26J       0.214300
     20 CAO          3.3000    -0.5620     0.1800 c6         1 26J       0.148800
     21 NBH          4.1030     0.6400     0.1330 n3         1 26J      -0.732600
     22 CAN          3.2730     1.8100     0.3220 c6         1 26J       0.148800
     23 CAL          2.2070     1.8810    -0.7580 c6         1 26J       0.214300
     24 C30          5.2410     0.5950     1.0320 c3         1 26J       0.176800
     25 C31          6.3780    -0.2900     0.5270 c6         1 26J      -0.059700
     26 C32          7.5220    -0.3030     1.5410 c6         1 26J      -0.069900
     27 C33          8.7030    -1.1380     1.0570 c6         1 26J      -0.072900
     28 C34          9.1950    -0.6630    -0.3060 c6         1 26J      -0.075400
     29 C35          8.0620    -0.6630    -1.3270 c6         1 26J      -0.072900
     30 C36          6.8770     0.1660    -0.8430 c6         1 26J      -0.069900
     31 H1          -2.1460    -2.9530    -1.0860 hn         1 26J       0.463000
     32 H2          -3.6120    -4.3190     0.4840 ho         1 26J       0.467000
     33 H3          -4.4350     2.1120     0.3330 ha         1 26J       0.162000
     34 H4          -5.2820    -2.0950     0.1470 ha         1 26J       0.148000
     35 H5           1.6390    -1.4420    -0.8580 h1         1 26J       0.075450
     36 H6           2.6970    -0.4920    -1.8840 h1         1 26J       0.075450
     37 H7           2.8200    -0.7010     1.1650 h1         1 26J       0.046700
     38 H8           3.9280    -1.4370     0.0050 h1         1 26J       0.046700
     39 H10          2.7850     1.8270     1.3110 h1         1 26J       0.046700
     40 H11          3.8910     2.7070     0.2520 h1         1 26J       0.046700
     41 H12          2.6790     1.9610    -1.7410 h1         1 26J       0.075450
     42 H13          1.5630     2.7420    -0.6140 h1         1 26J       0.075450
     43 H14          5.6270     1.6150     1.1310 h1         1 26J       0.034700
     44 H15          4.9440     0.2780     2.0460 h1         1 26J       0.034700
     45 H16          6.0180    -1.3230     0.4310 hc         1 26J       0.043700
     46 H17          7.8570     0.7260     1.7190 hc         1 26J       0.041450
     47 H18          7.1640    -0.6810     2.5040 hc         1 26J       0.041450
     48 H19          9.5140    -1.0990     1.7890 hc         1 26J       0.038200
     49 H20          8.3980    -2.1880     0.9860 hc         1 26J       0.038200
     50 H21          9.5940     0.3530    -0.2110 hc         1 26J       0.038700
     51 H22         10.0210    -1.2890    -0.6520 hc         1 26J       0.038700
     52 H23          8.4150    -0.2830    -2.2890 hc         1 26J       0.038200
     53 H24          7.7360    -1.6940    -1.5050 hc         1 26J       0.038200
     54 H25          6.0590     0.1240    -1.5650 hc         1 26J       0.041450
     55 H26          7.1770     1.2190    -0.7760 hc         1 26J       0.041450
@<TRIPOS>BOND
     1     1     2 1   
     2     1     3 1   
     3     1    31 1   
     4     2    32 1   
     5     3     4 ar  
     6     3    17 ar  
     7     4     5 1   
     8     4    10 ar  
     9     5     6 1   
    10     6     7 2   
    11     6    18 1   
    12     7     8 1   
    13     8     9 2   
    14     8    10 1   
    15    10    11 ar  
    16    11    12 ar  
    17    11    33 1   
    18    12    13 1   
    19    12    17 ar  
    20    13    14 1   
    21    13    15 1   
    22    13    16 1   
    23    17    34 1   
    24    18    19 1   
    25    18    23 1   
    26    19    20 1   
    27    19    35 1   
    28    19    36 1   
    29    20    21 1   
    30    20    37 1   
    31    20    38 1   
    32    21    22 1   
    33    21    24 1   
    34    22    23 1   
    35    22    39 1   
    36    22    40 1   
    37    23    41 1   
    38    23    42 1   
    39    24    25 1   
    40    24    43 1   
    41    24    44 1   
    42    25    26 1   
    43    25    30 1   
    44    25    45 1   
    45    26    27 1   
    46    26    46 1   
    47    26    47 1   
    48    27    28 1   
    49    27    48 1   
    50    27    49 1   
    51    28    29 1   
    52    28    50 1   
    53    28    51 1   
    54    29    30 1   
    55    29    52 1   
    56    29    53 1   
    57    30    54 1   
    58    30    55 1   
@<TRIPOS>SUBSTRUCTURE
     1 26J         1 TEMP              0 ****  ****    0 ROOT
