@<TRIPOS>MOLECULE
26K
   37    39     1     0     0
SMALL
abcg2


@<TRIPOS>ATOM
      1 N1           4.7120    -0.9230     0.0290 n3         1 26K      -0.709600
      2 N3          -2.0620     2.1230    -0.0190 na         1 26K       0.082900
      3 C4           2.5360     0.2220    -0.1190 c3         1 26K       0.226800
      4 C5           0.5910     1.7080    -0.0690 cc         1 26K       0.646900
      5 C6           0.0670     3.0470    -0.1480 cc         1 26K      -0.269000
      6 C7          -1.2710     3.2190    -0.1230 cd         1 26K      -0.004000
      7 C8          -1.5150     0.8620     0.0570 cd         1 26K       0.432500
      8 C10         -2.5490    -1.4520     0.2740 cc         1 26K      -0.102800
      9 C13         -3.7140     0.8420     0.1320 cc         1 26K       0.401500
     10 C2           4.8220    -1.4390    -1.3210 c3         1 26K       0.148600
     11 C1           6.0160    -0.8580     0.6530 c3         1 26K       0.148600
     12 C3           4.0380     0.3580     0.0820 c3         1 26K       0.149800
     13 N2           1.9210     1.5290    -0.0820 nu         1 26K      -0.930100
     14 N7          -0.1920     0.6540     0.0250 nd         1 26K      -0.749000
     15 C9          -2.5940    -0.0100     0.1600 cc         1 26K      -0.208800
     16 C12         -3.6100    -2.3310     0.3940 cd         1 26K      -0.186000
     17 N5          -3.0800    -3.5630     0.4720 na         1 26K      -0.007200
     18 N4          -1.7560    -3.5680     0.4150 nd         1 26K      -0.531800
     19 C11         -1.4160    -2.2970     0.2940 cc         1 26K       0.255900
     20 N6          -3.4030     2.1200     0.0240 nd         1 26K      -0.583100
     21 H2           2.3010    -0.2750    -1.0670 h1         1 26K       0.065700
     22 H3           2.1200    -0.4000     0.6740 h1         1 26K       0.065700
     23 H4           0.7230     3.9010    -0.2270 ha         1 26K       0.135000
     24 H5          -1.7640     4.1780    -0.1790 h4         1 26K       0.159000
     25 H6          -4.7540     0.5540     0.1880 h4         1 26K       0.041800
     26 H7           5.4130    -0.7870    -1.9820 h1         1 26K       0.033033
     27 H8           5.3020    -2.4180    -1.3010 h1         1 26K       0.033033
     28 H9           3.8400    -1.5710    -1.7750 h1         1 26K       0.033033
     29 H10          6.7110    -0.1710     0.1450 h1         1 26K       0.033033
     30 H11          5.9220    -0.5310     1.6900 h1         1 26K       0.033033
     31 H12          6.4760    -1.8480     0.6560 h1         1 26K       0.033033
     32 H13          4.2090     0.7930     1.0700 h1         1 26K       0.032200
     33 H14          4.4540     1.0720    -0.6510 h1         1 26K       0.032200
     34 H15          2.4990     2.3320    -0.2680 hn         1 26K       0.491000
     35 H16         -4.6750    -2.1690     0.4280 h4         1 26K       0.149000
     36 H17         -3.5820    -4.4310     0.5710 hn         1 26K       0.367000
     37 H18         -0.3790    -2.0090     0.2250 h4         1 26K       0.050100
@<TRIPOS>BOND
     1     1    10 1   
     2     1    11 1   
     3     1    12 1   
     4     2     6 1   
     5     2     7 1   
     6     2    20 1   
     7     3    12 1   
     8     3    13 1   
     9     3    21 1   
    10     3    22 1   
    11     4     5 1   
    12     4    13 1   
    13     4    14 2   
    14     5     6 2   
    15     5    23 1   
    16     6    24 1   
    17     7    14 1   
    18     7    15 2   
    19     8    15 1   
    20     8    16 2   
    21     8    19 1   
    22     9    15 1   
    23     9    20 2   
    24     9    25 1   
    25    10    26 1   
    26    10    27 1   
    27    10    28 1   
    28    11    29 1   
    29    11    30 1   
    30    11    31 1   
    31    12    32 1   
    32    12    33 1   
    33    13    34 1   
    34    16    17 1   
    35    16    35 1   
    36    17    18 1   
    37    17    36 1   
    38    18    19 2   
    39    19    37 1   
@<TRIPOS>SUBSTRUCTURE
     1 26K         1 TEMP              0 ****  ****    0 ROOT
