@<TRIPOS>MOLECULE
26K
   37    39     1     0     0
SMALL
No Charge or Current Charge


@<TRIPOS>ATOM
      1 N1           4.9750    -0.8190     0.1480 n3         1 26K      -0.709600
      2 N3          -2.1380     2.1310     0.0820 na         1 26K       0.082900
      3 C4           2.5950     0.1800     0.0860 c3         1 26K       0.226800
      4 C5           0.4900     1.6030     0.0680 cc         1 26K       0.646900
      5 C6           0.0110     2.9630     0.0590 cc         1 26K      -0.269000
      6 C7          -1.3450     3.2730     0.0660 cd         1 26K      -0.004000
      7 C8          -1.5550     0.8720     0.0900 cd         1 26K       0.432500
      8 C10         -2.6070    -1.4320     0.1170 cc         1 26K      -0.102800
      9 C13         -3.7630     0.8540     0.1050 cc         1 26K       0.401500
     10 C2           4.7450    -1.8110    -0.9300 c3         1 26K       0.148600
     11 C1           6.4120    -0.4960     0.3030 c3         1 26K       0.148600
     12 C3           4.1340     0.4050     0.0260 c3         1 26K       0.149800
     13 N2           1.8400     1.4550     0.0590 nu         1 26K      -0.930100
     14 N7          -0.2260     0.4970     0.0830 nd         1 26K      -0.749000
     15 C9          -2.6140     0.0120     0.1050 cc         1 26K      -0.208800
     16 C12         -3.7310    -2.2000     0.1320 cd         1 26K      -0.186000
     17 N5          -3.2550    -3.5190     0.1400 na         1 26K      -0.007200
     18 N4          -1.8590    -3.5870     0.1310 nd         1 26K      -0.531800
     19 C11         -1.5080    -2.3140     0.1170 cc         1 26K       0.255900
     20 N6          -3.5180     2.1640     0.0920 nd         1 26K      -0.583100
     21 H2           2.2900    -0.4450    -0.7650 h1         1 26K       0.065700
     22 H3           2.3590    -0.3750     1.0050 h1         1 26K       0.065700
     23 H4           0.7380     3.7670     0.0460 ha         1 26K       0.135000
     24 H5          -1.8060     4.2540     0.0600 h4         1 26K       0.159000
     25 H6          -4.7960     0.5320     0.1150 h4         1 26K       0.041800
     26 H7           4.9750    -1.3810    -1.9140 h1         1 26K       0.033033
     27 H8           5.3830    -2.6940    -0.7860 h1         1 26K       0.033033
     28 H9           3.7030    -2.1570    -0.9370 h1         1 26K       0.033033
     29 H10          6.8010     0.0010    -0.5970 h1         1 26K       0.033033
     30 H11          6.5700     0.1720     1.1600 h1         1 26K       0.033033
     31 H12          7.0000    -1.4080     0.4740 h1         1 26K       0.033033
     32 H13          4.3930     1.0950     0.8410 h1         1 26K       0.032200
     33 H14          4.3710     0.9220    -0.9140 h1         1 26K       0.032200
     34 H15          2.3600     2.3290     0.0620 hn         1 26K       0.491000
     35 H16         -4.7850    -1.9440     0.1370 h4         1 26K       0.149000
     36 H17         -3.8270    -4.3640     0.1520 hn         1 26K       0.367000
     37 H18         -0.4540    -2.0730     0.1080 h4         1 26K       0.050100
@<TRIPOS>BOND
     1     1    10 1   
     2     1    11 1   
     3     1    12 1   
     4     2     6 1   
     5     2     7 1   
     6     2    20 1   
     7     3    12 1   
     8     3    13 1   
     9     3    21 1   
    10     3    22 1   
    11     4     5 1   
    12     4    13 1   
    13     4    14 2   
    14     5     6 2   
    15     5    23 1   
    16     6    24 1   
    17     7    14 1   
    18     7    15 2   
    19     8    15 1   
    20     8    16 2   
    21     8    19 1   
    22     9    15 1   
    23     9    20 2   
    24     9    25 1   
    25    10    26 1   
    26    10    27 1   
    27    10    28 1   
    28    11    29 1   
    29    11    30 1   
    30    11    31 1   
    31    12    32 1   
    32    12    33 1   
    33    13    34 1   
    34    16    17 1   
    35    16    35 1   
    36    17    18 1   
    37    17    36 1   
    38    18    19 2   
    39    19    37 1   
@<TRIPOS>SUBSTRUCTURE
     1 26K         1 TEMP              0 ****  ****    0 ROOT
