@<TRIPOS>MOLECULE
26L
   50    54     1     0     0
SMALL
abcg2


@<TRIPOS>ATOM
      1 N1           5.0420    -1.0840    -1.5750 n8         1 26L      -1.010200
      2 C1           4.4120    -1.7870    -0.4680 c6         1 26L       0.135500
      3 C6           3.1430    -1.0480    -0.0300 c6         1 26L       0.242500
      4 C5           2.5570    -1.7070     1.2190 c6         1 26L      -0.084400
      5 C4           2.2240    -3.1720     0.9570 c6         1 26L      -0.075400
      6 C3           3.4480    -3.9360     0.4630 c6         1 26L      -0.072400
      7 C2           4.0720    -3.2510    -0.7480 c6         1 26L      -0.106400
      8 N2           3.4600     0.3510     0.1790 nu         1 26L      -0.903100
      9 C7           2.5340     1.3230     0.1680 cc         1 26L       0.650900
     10 C22          2.9640     2.6950     0.2090 cc         1 26L      -0.264000
     11 C21          2.0260     3.6640     0.2080 cd         1 26L      -0.005000
     12 N5           0.7210     3.3020     0.1700 na         1 26L       0.080900
     13 C8           0.3520     1.9770     0.1280 cd         1 26L       0.451500
     14 N3           1.2590     0.9950     0.1250 nd         1 26L      -0.769000
     15 N4          -0.3260     4.1440     0.1650 nd         1 26L      -0.584100
     16 C20         -1.3740     3.3480     0.1220 cc         1 26L       0.412500
     17 C9          -1.0450     1.9760     0.0950 cc         1 26L      -0.266800
     18 C10         -1.9530     0.8390     0.0420 ca         1 26L       0.030200
     19 C19         -1.4630    -0.4760    -0.1940 ca         1 26L      -0.098000
     20 C18         -2.3110    -1.5440    -0.2650 ca         1 26L      -0.106000
     21 C17         -3.7070    -1.3850    -0.1050 ca         1 26L      -0.044000
     22 C12         -4.2090    -0.0810     0.1370 ca         1 26L      -0.028000
     23 C11         -3.3120     1.0060     0.2070 ca         1 26L      -0.117000
     24 C16         -4.6090    -2.4720    -0.1760 ca         1 26L      -0.096000
     25 C15         -5.9540    -2.2740    -0.0130 ca         1 26L      -0.115000
     26 C14         -6.4550    -0.9780     0.2300 ca         1 26L      -0.111000
     27 C13         -5.6060     0.0920     0.3040 ca         1 26L      -0.100000
     28 H1           5.9040    -1.5540    -1.8250 hn         1 26L       0.401000
     29 H2           4.4490    -1.1340    -2.3960 hn         1 26L       0.401000
     30 H4           5.1190    -1.7550     0.3710 h1         1 26L       0.065700
     31 H5           2.4040    -1.1270    -0.8400 h1         1 26L       0.060700
     32 H6           3.2860    -1.6300     2.0330 hc         1 26L       0.059200
     33 H7           1.6630    -1.1670     1.5330 hc         1 26L       0.059200
     34 H8           1.8300    -3.6310     1.8660 hc         1 26L       0.045700
     35 H9           1.4260    -3.2350     0.2080 hc         1 26L       0.045700
     36 H10          4.1880    -3.9900     1.2680 hc         1 26L       0.043200
     37 H11          3.1820    -4.9660     0.2170 hc         1 26L       0.043200
     38 H12          3.3810    -3.2970    -1.5990 hc         1 26L       0.041700
     39 H13          4.9810    -3.7760    -1.0550 hc         1 26L       0.041700
     40 H14          4.4060     0.6230    -0.0440 hn         1 26L       0.510000
     41 H15          4.0130     2.9510     0.2410 ha         1 26L       0.140000
     42 H16          2.2400     4.7230     0.2360 h4         1 26L       0.160000
     43 H17         -2.3620     3.7850     0.1000 h4         1 26L       0.045800
     44 H18         -0.3990    -0.6280    -0.3180 ha         1 26L       0.134000
     45 H19         -1.9140    -2.5350    -0.4520 ha         1 26L       0.107000
     46 H20         -3.7220     1.9890     0.4040 ha         1 26L       0.107000
     47 H21         -4.2200    -3.4660    -0.3650 ha         1 26L       0.109000
     48 H22         -6.6380    -3.1100    -0.0700 ha         1 26L       0.109000
     49 H23         -7.5210    -0.8330     0.3560 ha         1 26L       0.109000
     50 H24         -5.9930     1.0860     0.4920 ha         1 26L       0.110000
@<TRIPOS>BOND
     1     1     2 1   
     2     1    28 1   
     3     1    29 1   
     4     2     3 1   
     5     2     7 1   
     6     2    30 1   
     7     3     4 1   
     8     3     8 1   
     9     3    31 1   
    10     4     5 1   
    11     4    32 1   
    12     4    33 1   
    13     5     6 1   
    14     5    34 1   
    15     5    35 1   
    16     6     7 1   
    17     6    36 1   
    18     6    37 1   
    19     7    38 1   
    20     7    39 1   
    21     8     9 1   
    22     8    40 1   
    23     9    10 1   
    24     9    14 2   
    25    10    11 2   
    26    10    41 1   
    27    11    12 1   
    28    11    42 1   
    29    12    13 1   
    30    12    15 1   
    31    13    14 1   
    32    13    17 2   
    33    15    16 2   
    34    16    17 1   
    35    16    43 1   
    36    17    18 1   
    37    18    19 ar  
    38    18    23 ar  
    39    19    20 ar  
    40    19    44 1   
    41    20    21 ar  
    42    20    45 1   
    43    21    22 ar  
    44    21    24 ar  
    45    22    23 ar  
    46    22    27 ar  
    47    23    46 1   
    48    24    25 ar  
    49    24    47 1   
    50    25    26 ar  
    51    25    48 1   
    52    26    27 ar  
    53    26    49 1   
    54    27    50 1   
@<TRIPOS>SUBSTRUCTURE
     1 26L         1 TEMP              0 ****  ****    0 ROOT
