@<TRIPOS>MOLECULE
26L
   50    54     1     0     0
SMALL
No Charge or Current Charge


@<TRIPOS>ATOM
      1 N1           5.2460    -0.9170    -1.3430 n8         1 26L      -1.010200
      2 C1           4.5240    -1.7030    -0.3040 c6         1 26L       0.135500
      3 C6           3.1200    -1.0960     0.0590 c6         1 26L       0.242500
      4 C5           2.4660    -1.9280     1.1950 c6         1 26L      -0.084400
      5 C4           2.3250    -3.4140     0.7770 c6         1 26L      -0.075400
      6 C3           3.6900    -4.0210     0.3630 c6         1 26L      -0.072400
      7 C2           4.3780    -3.1810    -0.7450 c6         1 26L      -0.106400
      8 N2           3.2900     0.3170     0.4550 nu         1 26L      -0.903100
      9 C7           2.3420     1.2740     0.2760 cc         1 26L       0.650900
     10 C22          2.8290     2.6300     0.2880 cc         1 26L      -0.264000
     11 C21          1.9850     3.7230     0.1330 cd         1 26L      -0.005000
     12 N5           0.6600     3.3390    -0.0450 na         1 26L       0.080900
     13 C8           0.3070     1.9960    -0.0480 cd         1 26L       0.451500
     14 N3           1.0940     0.8760     0.1300 nd         1 26L      -0.769000
     15 N4          -0.3770     4.2410    -0.1180 nd         1 26L      -0.584100
     16 C20         -1.3950     3.3870    -0.1880 cc         1 26L       0.412500
     17 C9          -1.0570     2.0010    -0.1830 cc         1 26L      -0.266800
     18 C10         -1.9650     0.8330    -0.1560 ca         1 26L       0.030200
     19 C19         -1.5560    -0.4890    -0.4530 ca         1 26L      -0.098000
     20 C18         -2.4700    -1.5570    -0.4200 ca         1 26L      -0.106000
     21 C17         -3.8170    -1.3260    -0.0980 ca         1 26L      -0.044000
     22 C12         -4.2480    -0.0140     0.1830 ca         1 26L      -0.028000
     23 C11         -3.3280     1.0510     0.1470 ca         1 26L      -0.117000
     24 C16         -4.7350    -2.3920    -0.0630 ca         1 26L      -0.096000
     25 C15         -6.0830    -2.1500     0.2550 ca         1 26L      -0.115000
     26 C14         -6.5140    -0.8420     0.5370 ca         1 26L      -0.111000
     27 C13         -5.5990     0.2240     0.5010 ca         1 26L      -0.100000
     28 H1           6.1110    -1.4120    -1.5900 hn         1 26L       0.401000
     29 H2           4.7030    -0.9420    -2.2130 hn         1 26L       0.401000
     30 H4           5.1490    -1.6820     0.6030 h1         1 26L       0.065700
     31 H5           2.4810    -1.1640    -0.8350 h1         1 26L       0.060700
     32 H6           3.0710    -1.8540     2.1090 hc         1 26L       0.059200
     33 H7           1.4760    -1.5240     1.4420 hc         1 26L       0.059200
     34 H8           1.8960    -3.9950     1.6050 hc         1 26L       0.045700
     35 H9           1.6160    -3.4960    -0.0590 hc         1 26L       0.045700
     36 H10          4.3480    -4.0800     1.2420 hc         1 26L       0.043200
     37 H11          3.5480    -5.0530     0.0130 hc         1 26L       0.043200
     38 H12          3.7900    -3.2420    -1.6720 hc         1 26L       0.041700
     39 H13          5.3650    -3.6100    -0.9680 hc         1 26L       0.041700
     40 H14          4.2240     0.6840     0.2900 hn         1 26L       0.510000
     41 H15          3.8900     2.7970     0.4340 ha         1 26L       0.140000
     42 H16          2.2470     4.7740     0.1440 h4         1 26L       0.160000
     43 H17         -2.3910     3.8050    -0.2440 h4         1 26L       0.045800
     44 H18         -0.5370    -0.7140    -0.7450 ha         1 26L       0.134000
     45 H19         -2.1280    -2.5620    -0.6540 ha         1 26L       0.107000
     46 H20         -3.6830     2.0510     0.3750 ha         1 26L       0.107000
     47 H21         -4.4080    -3.4060    -0.2810 ha         1 26L       0.109000
     48 H22         -6.7920    -2.9740     0.2830 ha         1 26L       0.109000
     49 H23         -7.5570    -0.6550     0.7830 ha         1 26L       0.109000
     50 H24         -5.9410     1.2330     0.7200 ha         1 26L       0.110000
@<TRIPOS>BOND
     1     1     2 1   
     2     1    28 1   
     3     1    29 1   
     4     2     3 1   
     5     2     7 1   
     6     2    30 1   
     7     3     4 1   
     8     3     8 1   
     9     3    31 1   
    10     4     5 1   
    11     4    32 1   
    12     4    33 1   
    13     5     6 1   
    14     5    34 1   
    15     5    35 1   
    16     6     7 1   
    17     6    36 1   
    18     6    37 1   
    19     7    38 1   
    20     7    39 1   
    21     8     9 1   
    22     8    40 1   
    23     9    10 1   
    24     9    14 2   
    25    10    11 2   
    26    10    41 1   
    27    11    12 1   
    28    11    42 1   
    29    12    13 1   
    30    12    15 1   
    31    13    14 1   
    32    13    17 2   
    33    15    16 2   
    34    16    17 1   
    35    16    43 1   
    36    17    18 1   
    37    18    19 ar  
    38    18    23 ar  
    39    19    20 ar  
    40    19    44 1   
    41    20    21 ar  
    42    20    45 1   
    43    21    22 ar  
    44    21    24 ar  
    45    22    23 ar  
    46    22    27 ar  
    47    23    46 1   
    48    24    25 ar  
    49    24    47 1   
    50    25    26 ar  
    51    25    48 1   
    52    26    27 ar  
    53    26    49 1   
    54    27    50 1   
@<TRIPOS>SUBSTRUCTURE
     1 26L         1 TEMP              0 ****  ****    0 ROOT
