@<TRIPOS>MOLECULE
26M
   51    53     1     0     0
SMALL
abcg2


@<TRIPOS>ATOM
      1 C17         -7.1480     0.1190     1.5170 ca         1 26M      -0.102500
      2 C16         -8.5050     0.2310     1.7820 ca         1 26M      -0.110000
      3 C15         -9.4210     0.2630     0.7380 ca         1 26M      -0.109000
      4 C14         -8.9660     0.1830    -0.5710 ca         1 26M      -0.110000
      5 C13         -7.6080     0.0760    -0.8350 ca         1 26M      -0.102500
      6 C12         -6.6760     0.0420     0.2050 cp         1 26M      -0.026000
      7 C9          -5.2310    -0.0690    -0.0740 cp         1 26M      -0.068000
      8 C8          -4.7550    -0.8320    -1.1460 ca         1 26M      -0.063000
      9 C7          -3.4040    -0.9380    -1.4110 ca         1 26M      -0.169000
     10 C10         -4.2900     0.5820     0.7170 ca         1 26M      -0.063000
     11 C11         -2.9280     0.4880     0.4650 ca         1 26M      -0.169000
     12 C6          -2.4750    -0.2770    -0.6060 ca         1 26M       0.139100
     13 O5          -1.1770    -0.4360    -0.9380 os         1 26M      -0.307100
     14 C4          -0.2120     0.2190    -0.1640 c3         1 26M       0.074600
     15 C2           1.1550    -0.1150    -0.7330 c          1 26M       0.613100
     16 O3           1.3120    -0.8220    -1.7050 o          1 26M      -0.536100
     17 N1           2.1600     0.4810    -0.0500 ns         1 26M      -0.512900
     18 C1           3.5440     0.2710    -0.3220 c6         1 26M       0.302700
     19 O1           4.0320    -0.6940     0.5800 os         1 26M      -0.462000
     20 C5           5.3810    -1.0490     0.3540 c6         1 26M       0.179300
     21 C18          5.7330    -2.1570     1.3250 c3         1 26M       0.172600
     22 O6           4.9320    -3.2790     1.0440 oh         1 26M      -0.706000
     23 C19          6.2770     0.1770     0.5420 c6         1 26M       0.143300
     24 O4           7.5980    -0.2010     0.2490 oh         1 26M      -0.715000
     25 C3           5.8070     1.3000    -0.3740 c6         1 26M       0.139300
     26 O7           6.5990     2.4300    -0.0990 oh         1 26M      -0.666000
     27 C20          4.3250     1.5780    -0.1640 c6         1 26M       0.098300
     28 O2           3.9300     2.5300    -1.1170 oh         1 26M      -0.714000
     29 H1          -6.4510     0.0700     2.3440 ha         1 26M       0.112500
     30 H2          -8.8470     0.2850     2.8070 ha         1 26M       0.112500
     31 H3         -10.4810     0.3470     0.9430 ha         1 26M       0.113000
     32 H4          -9.6700     0.2130    -1.3930 ha         1 26M       0.112500
     33 H5          -7.2710     0.0350    -1.8640 ha         1 26M       0.112500
     34 H6          -5.4500    -1.3720    -1.7760 ha         1 26M       0.116000
     35 H7          -3.0580    -1.5390    -2.2420 ha         1 26M       0.123000
     36 H8          -4.6140     1.1980     1.5470 ha         1 26M       0.116000
     37 H9          -2.2450     1.0250     1.1090 ha         1 26M       0.123000
     38 H10         -0.3500     1.3070    -0.1770 h1         1 26M       0.049700
     39 H11         -0.2480    -0.0990     0.8860 h1         1 26M       0.049700
     40 H12          1.9280     0.9820     0.7970 hn         1 26M       0.309500
     41 H13          3.6430    -0.0830    -1.3560 h2         1 26M       0.090700
     42 H14          5.5050    -1.4170    -0.6770 h1         1 26M       0.068700
     43 H15          6.7990    -2.3830     1.2180 h1         1 26M       0.035200
     44 H16          5.5800    -1.7910     2.3500 h1         1 26M       0.035200
     45 H17          5.1920    -3.9850     1.6420 ho         1 26M       0.504000
     46 H18          6.1830     0.5180     1.5850 h1         1 26M       0.051700
     47 H19          8.1660     0.5660     0.3760 ho         1 26M       0.525000
     48 H20          5.9490     0.9680    -1.4160 h1         1 26M       0.059700
     49 H21          6.4350     3.0940    -0.7760 ho         1 26M       0.467000
     50 H22          4.1790     1.9470     0.8630 h1         1 26M       0.049700
     51 H23          3.0580     2.8640    -0.8840 ho         1 26M       0.515000
@<TRIPOS>BOND
     1     1     2 ar  
     2     1     6 ar  
     3     1    29 1   
     4     2     3 ar  
     5     2    30 1   
     6     3     4 ar  
     7     3    31 1   
     8     4     5 ar  
     9     4    32 1   
    10     5     6 ar  
    11     5    33 1   
    12     6     7 1   
    13     7     8 ar  
    14     7    10 ar  
    15     8     9 ar  
    16     8    34 1   
    17     9    12 ar  
    18     9    35 1   
    19    10    11 ar  
    20    10    36 1   
    21    11    12 ar  
    22    11    37 1   
    23    12    13 1   
    24    13    14 1   
    25    14    15 1   
    26    14    38 1   
    27    14    39 1   
    28    15    16 2   
    29    15    17 1   
    30    17    18 1   
    31    17    40 1   
    32    18    19 1   
    33    18    27 1   
    34    18    41 1   
    35    19    20 1   
    36    20    21 1   
    37    20    23 1   
    38    20    42 1   
    39    21    22 1   
    40    21    43 1   
    41    21    44 1   
    42    22    45 1   
    43    23    24 1   
    44    23    25 1   
    45    23    46 1   
    46    24    47 1   
    47    25    26 1   
    48    25    27 1   
    49    25    48 1   
    50    26    49 1   
    51    27    28 1   
    52    27    50 1   
    53    28    51 1   
@<TRIPOS>SUBSTRUCTURE
     1 26M         1 TEMP              0 ****  ****    0 ROOT
