@<TRIPOS>MOLECULE
26M
   51    53     1     0     0
SMALL
No Charge or Current Charge


@<TRIPOS>ATOM
      1 C17         -7.2460     0.2690     1.5600 ca         1 26M      -0.102500
      2 C16         -8.6190     0.3710     1.8410 ca         1 26M      -0.110000
      3 C15         -9.5610     0.2050     0.8140 ca         1 26M      -0.109000
      4 C14         -9.1290    -0.0640    -0.4940 ca         1 26M      -0.110000
      5 C13         -7.7550    -0.1680    -0.7740 ca         1 26M      -0.102500
      6 C12         -6.7840    -0.0030     0.2470 cp         1 26M      -0.026000
      7 C9          -5.3200    -0.1130    -0.0520 cp         1 26M      -0.068000
      8 C8          -4.8370    -1.0270    -1.0220 ca         1 26M      -0.063000
      9 C7          -3.4630    -1.1300    -1.3010 ca         1 26M      -0.169000
     10 C10         -4.3710     0.6940     0.6250 ca         1 26M      -0.063000
     11 C11         -2.9960     0.5930     0.3460 ca         1 26M      -0.169000
     12 C6          -2.5370    -0.3240    -0.6230 ca         1 26M       0.139100
     13 O5          -1.2020    -0.4680    -0.9390 os         1 26M      -0.307100
     14 C4          -0.1670     0.3150    -0.2970 c3         1 26M       0.074600
     15 C2           1.2440    -0.0340    -0.8230 c          1 26M       0.613100
     16 O3           1.4590    -0.8830    -1.6810 o          1 26M      -0.536100
     17 N1           2.2640     0.7040    -0.2640 ns         1 26M      -0.512900
     18 C1           3.6840     0.4550    -0.4870 c6         1 26M       0.302700
     19 O1           4.0320    -0.6390     0.3820 os         1 26M      -0.462000
     20 C5           5.4110    -1.0850     0.2670 c6         1 26M       0.179300
     21 C18          5.6050    -2.3420     1.1790 c3         1 26M       0.172600
     22 O6           4.6930    -3.4190     0.8760 oh         1 26M      -0.706000
     23 C19          6.3750     0.0820     0.6520 c6         1 26M       0.143300
     24 O4           7.7610    -0.2790     0.5030 oh         1 26M      -0.715000
     25 C3           6.0580     1.3200    -0.2360 c6         1 26M       0.139300
     26 O7           6.8840     2.4380     0.1300 oh         1 26M      -0.666000
     27 C20          4.5560     1.7040    -0.1200 c6         1 26M       0.098300
     28 O2           4.2780     2.8430    -0.9690 oh         1 26M      -0.714000
     29 H1          -6.5340     0.3880     2.3730 ha         1 26M       0.112500
     30 H2          -8.9520     0.5770     2.8560 ha         1 26M       0.112500
     31 H3         -10.6250     0.2850     1.0310 ha         1 26M       0.113000
     32 H4          -9.8570    -0.1910    -1.2920 ha         1 26M       0.112500
     33 H5          -7.4420    -0.3640    -1.7960 ha         1 26M       0.112500
     34 H6          -5.5300    -1.6740    -1.5540 ha         1 26M       0.116000
     35 H7          -3.1140    -1.8400    -2.0460 ha         1 26M       0.123000
     36 H8          -4.7040     1.4170     1.3650 ha         1 26M       0.116000
     37 H9          -2.3070     1.2350     0.8880 ha         1 26M       0.123000
     38 H10         -0.3290     1.3860    -0.4730 h1         1 26M       0.049700
     39 H11         -0.1670     0.1410     0.7860 h1         1 26M       0.049700
     40 H12          2.0050     1.3550     0.4660 hn         1 26M       0.309500
     41 H13          3.8510     0.1730    -1.5390 h2         1 26M       0.090700
     42 H14          5.6010    -1.3870    -0.7740 h1         1 26M       0.068700
     43 H15          6.6410    -2.6900     1.0690 h1         1 26M       0.035200
     44 H16          5.4790    -2.0260     2.2240 h1         1 26M       0.035200
     45 H17          4.8510    -4.1260     1.5440 ho         1 26M       0.504000
     46 H18          6.1760     0.3530     1.7000 h1         1 26M       0.051700
     47 H19          8.2440     0.5830     0.4730 ho         1 26M       0.525000
     48 H20          6.2530     1.0460    -1.2850 h1         1 26M       0.059700
     49 H21          6.4090     3.2230    -0.2330 ho         1 26M       0.467000
     50 H22          4.3480     1.9640     0.9300 h1         1 26M       0.049700
     51 H23          3.3060     3.0080    -0.9390 ho         1 26M       0.515000
@<TRIPOS>BOND
     1     1     2 ar  
     2     1     6 ar  
     3     1    29 1   
     4     2     3 ar  
     5     2    30 1   
     6     3     4 ar  
     7     3    31 1   
     8     4     5 ar  
     9     4    32 1   
    10     5     6 ar  
    11     5    33 1   
    12     6     7 1   
    13     7     8 ar  
    14     7    10 ar  
    15     8     9 ar  
    16     8    34 1   
    17     9    12 ar  
    18     9    35 1   
    19    10    11 ar  
    20    10    36 1   
    21    11    12 ar  
    22    11    37 1   
    23    12    13 1   
    24    13    14 1   
    25    14    15 1   
    26    14    38 1   
    27    14    39 1   
    28    15    16 2   
    29    15    17 1   
    30    17    18 1   
    31    17    40 1   
    32    18    19 1   
    33    18    27 1   
    34    18    41 1   
    35    19    20 1   
    36    20    21 1   
    37    20    23 1   
    38    20    42 1   
    39    21    22 1   
    40    21    43 1   
    41    21    44 1   
    42    22    45 1   
    43    23    24 1   
    44    23    25 1   
    45    23    46 1   
    46    24    47 1   
    47    25    26 1   
    48    25    27 1   
    49    25    48 1   
    50    26    49 1   
    51    27    28 1   
    52    27    50 1   
    53    28    51 1   
@<TRIPOS>SUBSTRUCTURE
     1 26M         1 TEMP              0 ****  ****    0 ROOT
