@<TRIPOS>MOLECULE
26N
   76    81     1     0     0
SMALL
abcg2


@<TRIPOS>ATOM
      1 C           -8.5660    -2.8590    -1.4310 ca         1 26N      -0.208500
      2 F           11.8170    -0.4100     0.8210 f          1 26N      -0.116667
      3 N           -9.1820    -5.1500    -1.1230 nb         1 26N      -0.684000
      4 O           -3.4630    -1.1730    -1.6260 o          1 26N      -0.587100
      5 C1          -9.3830    -3.9490    -1.6580 ca         1 26N       0.356900
      6 F1          11.6580     1.7310     0.8160 f          1 26N      -0.116667
      7 C2          -8.1270    -5.2750    -0.3290 ca         1 26N       0.356900
      8 F2          11.8800     0.6610    -1.0410 f          1 26N      -0.116667
      9 N2          -3.5850    -0.3110     0.4420 ns         1 26N      -0.488900
     10 C3          -7.2360    -4.2570    -0.0260 ca         1 26N      -0.208500
     11 F3          -1.0410    -2.5720    -1.7370 f          1 26N      -0.153000
     12 N3           2.7750    -0.1000    -0.3840 nh         1 26N      -0.795400
     13 C4          -7.4580    -3.0010    -0.5920 ca         1 26N       0.023000
     14 N4           5.6160     0.0690    -0.1430 nh         1 26N      -0.795400
     15 C5          -5.5380    -1.7580     0.3670 c          1 26N       0.600100
     16 N5          -3.8980     3.5100     2.5910 na         1 26N      -0.220700
     17 C6          -5.0180    -0.3250     0.4580 c3         1 26N       0.042700
     18 C8          -1.4230    -0.5820    -0.5400 ca         1 26N      -0.236600
     19 C9          -0.8250     0.5000     0.1130 ca         1 26N      -0.027000
     20 C10          0.5400     0.6630     0.1750 ca         1 26N      -0.200000
     21 C11          1.4100    -0.2740    -0.4170 ca         1 26N       0.364000
     22 C12          3.6340    -1.0700    -1.0290 c6         1 26N       0.197800
     23 C13          5.0050    -0.4890    -1.3300 c6         1 26N       0.195800
     24 C14          6.9860     0.2410    -0.1020 ca         1 26N       0.343000
     25 C15          7.6160     0.7550     1.0470 ca         1 26N      -0.184000
     26 C16          8.9860     0.8880     1.1160 ca         1 26N      -0.020500
     27 C17          9.7970     0.5190     0.0450 ca         1 26N      -0.244300
     28 C18         11.2770     0.6270     0.1550 c3         1 26N       0.362300
     29 C19          9.1930     0.0110    -1.0960 ca         1 26N      -0.020500
     30 C20          7.8170    -0.1180    -1.1750 ca         1 26N      -0.184000
     31 C21          4.7530     1.0550     0.4850 c6         1 26N       0.195800
     32 C22          3.3950     0.4670     0.8030 c6         1 26N       0.197800
     33 C23          0.8210    -1.3710    -1.0640 ca         1 26N      -0.247000
     34 C24         -0.5500    -1.4890    -1.1240 ca         1 26N       0.272000
     35 C25         -5.5300     0.3130     1.7620 c3         1 26N      -0.009200
     36 C26         -5.0620     1.7180     1.9190 cc         1 26N      -0.151400
     37 C27         -4.0950     2.1720     2.7730 cd         1 26N      -0.158100
     38 C28         -4.7320     3.9610     1.6100 ca         1 26N      -0.046200
     39 C29         -5.4870     2.8560     1.1590 ca         1 26N      -0.092800
     40 C30         -6.4380     3.0470     0.1490 ca         1 26N      -0.064000
     41 C31         -6.6050     4.3110    -0.3810 ca         1 26N      -0.134000
     42 C32         -5.8380     5.3960     0.0780 ca         1 26N      -0.088000
     43 C33         -4.8970     5.2390     1.0770 ca         1 26N      -0.125000
     44 H           -8.7910    -1.9090    -1.9000 ha         1 26N       0.136000
     45 H1         -10.2440    -3.8420    -2.3070 h4         1 26N       0.017100
     46 HN1         -6.9680    -1.0540    -0.8770 hn         1 26N       0.155000
     47 H2          -7.9640    -6.2550     0.1080 h4         1 26N       0.017100
     48 HN2         -3.0960    -0.0910     1.2950 hn         1 26N       0.326500
     49 H3          -6.4060    -4.4560     0.6290 ha         1 26N       0.136000
     50 HN5         -3.2420     4.0710     3.1080 hn         1 26N       0.352000
     51 H6          -5.3940     0.2580    -0.3890 h1         1 26N       0.074700
     52 H9          -1.4470     1.2670     0.5590 ha         1 26N       0.117000
     53 H10          0.9250     1.5480     0.6590 ha         1 26N       0.118000
     54 H12          3.7410    -1.9760    -0.4160 h1         1 26N       0.053450
     55 H12A         3.2080    -1.3670    -1.9860 h1         1 26N       0.053450
     56 H13          4.9160     0.2630    -2.1270 h1         1 26N       0.052700
     57 H13A         5.6100    -1.3080    -1.7140 h1         1 26N       0.052700
     58 H15          7.0400     1.0370     1.9160 ha         1 26N       0.118500
     59 H16          9.4160     1.2820     2.0280 ha         1 26N       0.127000
     60 H19          9.7820    -0.2800    -1.9560 ha         1 26N       0.127000
     61 H20          7.4050    -0.4930    -2.1000 ha         1 26N       0.118500
     62 H21          5.1800     1.4040     1.4210 h1         1 26N       0.052700
     63 H21A         4.6350     1.9310    -0.1680 h1         1 26N       0.052700
     64 H22          2.7820     1.2620     1.2170 h1         1 26N       0.053450
     65 H22A         3.5050    -0.3040     1.5780 h1         1 26N       0.053450
     66 H23          1.4100    -2.1590    -1.5110 ha         1 26N       0.135000
     67 H25         -6.6220     0.2660     1.7560 hc         1 26N       0.062700
     68 H25A        -5.1970    -0.2920     2.6090 hc         1 26N       0.062700
     69 H27         -3.5290     1.6280     3.5150 h4         1 26N       0.212000
     70 H30         -7.0400     2.2210    -0.2090 ha         1 26N       0.109000
     71 H31         -7.3360     4.4720    -1.1630 ha         1 26N       0.114000
     72 H32         -5.9890     6.3750    -0.3590 ha         1 26N       0.113000
     73 H33         -4.3090     6.0770     1.4300 ha         1 26N       0.115000
     74 N1          -6.6670    -1.8810    -0.3830 ns         1 26N      -0.138000
     75 C7          -2.8960    -0.7290    -0.6380 c          1 26N       0.630700
     76 O1          -5.0070    -2.6680     0.9670 o          1 26N      -0.563100
@<TRIPOS>BOND
     1     1     5 ar  
     2     1    13 ar  
     3     1    44 1   
     4     2    28 1   
     5     3     5 ar  
     6     3     7 ar  
     7     4    75 2   
     8     5    45 1   
     9     6    28 1   
    10     7    10 ar  
    11     7    47 1   
    12     8    28 1   
    13     9    17 1   
    14     9    48 1   
    15     9    75 1   
    16    10    13 ar  
    17    10    49 1   
    18    11    34 1   
    19    12    21 1   
    20    12    22 1   
    21    12    32 1   
    22    13    74 1   
    23    14    23 1   
    24    14    24 1   
    25    14    31 1   
    26    15    17 1   
    27    15    74 1   
    28    15    76 2   
    29    16    37 1   
    30    16    38 1   
    31    16    50 1   
    32    17    35 1   
    33    17    51 1   
    34    18    19 ar  
    35    18    34 ar  
    36    18    75 1   
    37    19    20 ar  
    38    19    52 1   
    39    20    21 ar  
    40    20    53 1   
    41    21    33 ar  
    42    22    23 1   
    43    22    54 1   
    44    22    55 1   
    45    23    56 1   
    46    23    57 1   
    47    24    25 ar  
    48    24    30 ar  
    49    25    26 ar  
    50    25    58 1   
    51    26    27 ar  
    52    26    59 1   
    53    27    28 1   
    54    27    29 ar  
    55    29    30 ar  
    56    29    60 1   
    57    30    61 1   
    58    31    32 1   
    59    31    62 1   
    60    31    63 1   
    61    32    64 1   
    62    32    65 1   
    63    33    34 ar  
    64    33    66 1   
    65    35    36 1   
    66    35    67 1   
    67    35    68 1   
    68    36    37 2   
    69    36    39 1   
    70    37    69 1   
    71    38    39 ar  
    72    38    43 ar  
    73    39    40 ar  
    74    40    41 ar  
    75    40    70 1   
    76    41    42 ar  
    77    41    71 1   
    78    42    43 ar  
    79    42    72 1   
    80    43    73 1   
    81    46    74 1   
@<TRIPOS>SUBSTRUCTURE
     1 26N         1 TEMP              0 ****  ****    0 ROOT
