@<TRIPOS>MOLECULE
26N
   76    81     1     0     0
SMALL
No Charge or Current Charge


@<TRIPOS>ATOM
      1 C           -9.1440    -3.0680     0.5020 ca         1 26N      -0.208500
      2 F           12.1610    -0.9670     0.1480 f          1 26N      -0.116667
      3 N           -9.6080    -5.3050     1.3020 nb         1 26N      -0.684000
      4 O           -3.4430     0.5350    -1.8840 o          1 26N      -0.587100
      5 C1         -10.0180    -4.1360     0.7620 ca         1 26N       0.356900
      6 F1          11.8680    -0.0620     2.1030 f          1 26N      -0.116667
      7 C2          -8.2950    -5.4320     1.5990 ca         1 26N       0.356900
      8 F2          12.1700     1.1920     0.3530 f          1 26N      -0.116667
      9 N2          -3.5640    -0.5140     0.1200 ns         1 26N      -0.488900
     10 C3          -7.3560    -4.4130     1.3710 ca         1 26N      -0.208500
     11 F3          -1.0190     0.5990    -3.0950 f          1 26N      -0.153000
     12 N3           2.8720     0.1740    -0.3080 nh         1 26N      -0.795400
     13 C4          -7.7790    -3.1930     0.8070 ca         1 26N       0.023000
     14 N4           5.8370     0.1430    -0.0050 nh         1 26N      -0.795400
     15 C5          -5.5520    -1.9150     0.7040 c          1 26N       0.600100
     16 N5          -3.9160     3.9690     0.7800 na         1 26N      -0.220700
     17 C6          -5.0410    -0.5140     0.2620 c3         1 26N       0.042700
     18 C8          -1.3590     0.0860    -0.7620 ca         1 26N      -0.236600
     19 C9          -0.7510    -0.1610     0.4930 ca         1 26N      -0.027000
     20 C10          0.6450    -0.1290     0.6260 ca         1 26N      -0.200000
     21 C11          1.4700     0.1490    -0.4720 ca         1 26N       0.364000
     22 C12          3.7490     0.9950    -1.2050 c6         1 26N       0.197800
     23 C13          5.1290     1.3440    -0.5540 c6         1 26N       0.195800
     24 C14          7.2380     0.1410     0.1910 ca         1 26N       0.343000
     25 C15          7.9420    -1.0750     0.1710 ca         1 26N      -0.184000
     26 C16          9.3330    -1.1050     0.3610 ca         1 26N      -0.020500
     27 C17         10.0490     0.0920     0.5710 ca         1 26N      -0.244300
     28 C18         11.5660     0.0640     0.7920 c3         1 26N       0.362300
     29 C19          9.3430     1.3120     0.6010 ca         1 26N      -0.020500
     30 C20          7.9520     1.3340     0.4080 ca         1 26N      -0.184000
     31 C21          4.9590    -0.6760     0.8920 c6         1 26N       0.195800
     32 C22          3.5810    -1.0280     0.2400 c6         1 26N       0.197800
     33 C23          0.8770     0.4000    -1.7160 ca         1 26N      -0.247000
     34 C24         -0.5170     0.3710    -1.8610 ca         1 26N       0.272000
     35 C25         -5.4880     0.5850     1.2610 c3         1 26N      -0.009200
     36 C26         -5.0460     1.9730     0.8730 cc         1 26N      -0.151400
     37 C27         -4.0290     2.7280     1.4530 cd         1 26N      -0.158100
     38 C28         -4.8780     3.9530    -0.2120 ca         1 26N      -0.046200
     39 C29         -5.5770     2.7790    -0.1900 ca         1 26N      -0.092800
     40 C30         -6.6140     2.5170    -1.0970 ca         1 26N      -0.064000
     41 C31         -6.9240     3.5100    -2.0500 ca         1 26N      -0.134000
     42 C32         -6.2020     4.7270    -2.0760 ca         1 26N      -0.088000
     43 C33         -5.1640     4.9580    -1.1470 ca         1 26N      -0.125000
     44 H           -9.5360    -2.1530     0.0660 ha         1 26N       0.136000
     45 H1         -11.0790    -4.0530     0.5300 h4         1 26N       0.017100
     46 HN1         -7.3980    -1.2940     0.1420 hn         1 26N       0.155000
     47 H2          -7.9870    -6.3820     2.0340 h4         1 26N       0.017100
     48 HN2         -3.0160    -0.9490     0.8510 hn         1 26N       0.326500
     49 H3          -6.3220    -4.6000     1.6400 ha         1 26N       0.136000
     50 HN5         -3.2610     4.7190     0.9840 hn         1 26N       0.352000
     51 H6          -5.4960    -0.3060    -0.7150 h1         1 26N       0.074700
     52 H9          -1.3440    -0.3600     1.3830 ha         1 26N       0.117000
     53 H10          1.0900    -0.3070     1.6010 ha         1 26N       0.118000
     54 H12          3.9360     0.4480    -2.1410 h1         1 26N       0.053450
     55 H12A         3.2490     1.9370    -1.4710 h1         1 26N       0.053450
     56 H13          4.9570     2.0730     0.2530 h1         1 26N       0.052700
     57 H13A         5.7500     1.8390    -1.3150 h1         1 26N       0.052700
     58 H15          7.4090    -2.0040    -0.0050 ha         1 26N       0.118500
     59 H16          9.8500    -2.0630     0.3440 ha         1 26N       0.127000
     60 H19          9.8680     2.2500     0.7770 ha         1 26N       0.127000
     61 H20          7.4330     2.2860     0.4440 ha         1 26N       0.118500
     62 H21          5.4530    -1.6160     1.1740 h1         1 26N       0.052700
     63 H21A         4.7700    -0.1230     1.8240 h1         1 26N       0.052700
     64 H22          2.9640    -1.5370     0.9940 h1         1 26N       0.053450
     65 H22A         3.7550    -1.7500    -0.5710 h1         1 26N       0.053450
     66 H23          1.4880     0.6040    -2.5870 ha         1 26N       0.135000
     67 H25         -6.5820     0.5740     1.3530 hc         1 26N       0.062700
     68 H25A        -5.0980     0.3430     2.2580 hc         1 26N       0.062700
     69 H27         -3.3790     2.4690     2.2850 h4         1 26N       0.212000
     70 H30         -7.1640     1.5800    -1.0690 ha         1 26N       0.109000
     71 H31         -7.7230     3.3400    -2.7690 ha         1 26N       0.114000
     72 H32         -6.4470     5.4870    -2.8140 ha         1 26N       0.113000
     73 H33         -4.6040     5.8900    -1.1580 ha         1 26N       0.115000
     74 N1          -6.9200    -2.0950     0.5340 ns         1 26N      -0.138000
     75 C7          -2.8630     0.0640    -0.9170 c          1 26N       0.630700
     76 O1          -4.7990    -2.7740     1.1550 o          1 26N      -0.563100
@<TRIPOS>BOND
     1     1     5 ar  
     2     1    13 ar  
     3     1    44 1   
     4     2    28 1   
     5     3     5 ar  
     6     3     7 ar  
     7     4    75 2   
     8     5    45 1   
     9     6    28 1   
    10     7    10 ar  
    11     7    47 1   
    12     8    28 1   
    13     9    17 1   
    14     9    48 1   
    15     9    75 1   
    16    10    13 ar  
    17    10    49 1   
    18    11    34 1   
    19    12    21 1   
    20    12    22 1   
    21    12    32 1   
    22    13    74 1   
    23    14    23 1   
    24    14    24 1   
    25    14    31 1   
    26    15    17 1   
    27    15    74 1   
    28    15    76 2   
    29    16    37 1   
    30    16    38 1   
    31    16    50 1   
    32    17    35 1   
    33    17    51 1   
    34    18    19 ar  
    35    18    34 ar  
    36    18    75 1   
    37    19    20 ar  
    38    19    52 1   
    39    20    21 ar  
    40    20    53 1   
    41    21    33 ar  
    42    22    23 1   
    43    22    54 1   
    44    22    55 1   
    45    23    56 1   
    46    23    57 1   
    47    24    25 ar  
    48    24    30 ar  
    49    25    26 ar  
    50    25    58 1   
    51    26    27 ar  
    52    26    59 1   
    53    27    28 1   
    54    27    29 ar  
    55    29    30 ar  
    56    29    60 1   
    57    30    61 1   
    58    31    32 1   
    59    31    62 1   
    60    31    63 1   
    61    32    64 1   
    62    32    65 1   
    63    33    34 ar  
    64    33    66 1   
    65    35    36 1   
    66    35    67 1   
    67    35    68 1   
    68    36    37 2   
    69    36    39 1   
    70    37    69 1   
    71    38    39 ar  
    72    38    43 ar  
    73    39    40 ar  
    74    40    41 ar  
    75    40    70 1   
    76    41    42 ar  
    77    41    71 1   
    78    42    43 ar  
    79    42    72 1   
    80    43    73 1   
    81    46    74 1   
@<TRIPOS>SUBSTRUCTURE
     1 26N         1 TEMP              0 ****  ****    0 ROOT
