@<TRIPOS>MOLECULE
26O
   43    44     1     0     0
SMALL
abcg2


@<TRIPOS>ATOM
      1 C1           1.7650    -0.2040    -0.5700 c6         1 26O       0.293700
      2 C2           1.9960     1.2370    -1.0300 c6         1 26O       0.104300
      3 O2           1.6320     1.4120    -2.3740 oh         1 26O      -0.714000
      4 C3           3.4810     1.5550    -0.9100 c6         1 26O       0.140300
      5 O3           3.7530     2.9090    -1.1760 oh         1 26O      -0.664000
      6 C4           3.9860     1.2510     0.4950 c6         1 26O       0.142300
      7 O4           5.3830     1.3910     0.5730 oh         1 26O      -0.715000
      8 C5           3.6280    -0.1860     0.8730 c6         1 26O       0.180300
      9 O5           2.2330    -0.3770     0.7430 os         1 26O      -0.458000
     10 C6           4.0070    -0.5040     2.3040 c3         1 26O       0.172600
     11 O6           3.7470    -1.8640     2.5530 oh         1 26O      -0.704000
     12 NAL          0.3720    -0.5150    -0.5890 ns         1 26O      -0.429900
     13 CAM         -0.1280    -1.7260    -0.8890 cs         1 26O       0.490400
     14 NAN         -1.4600    -1.8720    -0.7400 ns         1 26O      -0.222900
     15 SAO          0.7670    -3.0280    -1.4400 s          1 26O      -0.605400
     16 NAP         -2.2690    -0.8620    -0.3650 n2         1 26O      -0.541300
     17 CAQ         -3.5020    -1.1340    -0.1660 ce         1 26O       0.449800
     18 CAR         -4.4730    -0.1230     0.2020 ca         1 26O      -0.257900
     19 CAS         -4.1580     1.2470     0.2860 ca         1 26O       0.196100
     20 CAT         -5.1520     2.1600     0.6320 ca         1 26O      -0.162000
     21 CAU         -6.4390     1.7250     0.8950 ca         1 26O      -0.047000
     22 CAV         -6.7660     0.3730     0.8160 ca         1 26O      -0.157000
     23 CAW         -5.7850    -0.5330     0.4690 ca         1 26O      -0.042000
     24 OAX         -2.9320     1.7180     0.0360 oh         1 26O      -0.539100
     25 H1           2.2690    -0.8910    -1.2600 h2         1 26O       0.108700
     26 H2           1.4370     1.9160    -0.3670 h1         1 26O       0.053700
     27 HO2          0.6730     1.3960    -2.4480 ho         1 26O       0.518000
     28 H3           4.0250     0.9020    -1.6110 h1         1 26O       0.060700
     29 HO3          3.6440     3.0650    -2.1190 ho         1 26O       0.467000
     30 H4           3.4820     1.9310     1.2020 h1         1 26O       0.052700
     31 HO4          5.6080     2.2910     0.3160 ho         1 26O       0.525000
     32 H5           4.1650    -0.8720     0.1980 h1         1 26O       0.072700
     33 H6           5.0660    -0.2620     2.4400 h1         1 26O       0.035200
     34 H6A          3.4370     0.1510     2.9770 h1         1 26O       0.035200
     35 HO6          4.0410    -2.0620     3.4470 ho         1 26O       0.503000
     36 HNAL        -0.2420     0.1300    -0.1110 hn         1 26O       0.323500
     37 HNAN        -1.8520    -2.7840    -0.9490 hn         1 26O       0.351500
     38 HAQ         -3.8770    -2.1530    -0.2750 h4         1 26O      -0.001200
     39 HAT         -4.9040     3.2120     0.6910 ha         1 26O       0.134000
     40 HAU         -7.1970     2.4500     1.1630 ha         1 26O       0.119000
     41 HAV         -7.7720     0.0380     1.0230 ha         1 26O       0.123000
     42 HAW         -6.0230    -1.5880     0.4020 ha         1 26O       0.113000
     43 HOAX        -2.3500     0.9760    -0.2080 ho         1 26O       0.495000
@<TRIPOS>BOND
     1     1     2 1   
     2     1     9 1   
     3     1    12 1   
     4     1    25 1   
     5     2     3 1   
     6     2     4 1   
     7     2    26 1   
     8     3    27 1   
     9     4     5 1   
    10     4     6 1   
    11     4    28 1   
    12     5    29 1   
    13     6     7 1   
    14     6     8 1   
    15     6    30 1   
    16     7    31 1   
    17     8     9 1   
    18     8    10 1   
    19     8    32 1   
    20    10    11 1   
    21    10    33 1   
    22    10    34 1   
    23    11    35 1   
    24    12    13 1   
    25    12    36 1   
    26    13    14 1   
    27    13    15 2   
    28    14    16 1   
    29    14    37 1   
    30    16    17 2   
    31    17    18 1   
    32    17    38 1   
    33    18    19 ar  
    34    18    23 ar  
    35    19    20 ar  
    36    19    24 1   
    37    20    21 ar  
    38    20    39 1   
    39    21    22 ar  
    40    21    40 1   
    41    22    23 ar  
    42    22    41 1   
    43    23    42 1   
    44    24    43 1   
@<TRIPOS>SUBSTRUCTURE
     1 26O         1 TEMP              0 ****  ****    0 ROOT
