@<TRIPOS>MOLECULE
26O
   43    44     1     0     0
SMALL
No Charge or Current Charge


@<TRIPOS>ATOM
      1 C1           1.7180    -0.2070    -0.8640 c6         1 26O       0.293700
      2 C2           1.8940     1.3440    -0.9920 c6         1 26O       0.104300
      3 O2           1.7040     1.8140    -2.3490 oh         1 26O      -0.714000
      4 C3           3.3190     1.7310    -0.5040 c6         1 26O       0.140300
      5 O3           3.4980     3.1560    -0.5770 oh         1 26O      -0.664000
      6 C4           3.5580     1.2170     0.9450 c6         1 26O       0.142300
      7 O4           4.8950     1.5540     1.3640 oh         1 26O      -0.715000
      8 C5           3.2900    -0.3200     0.9950 c6         1 26O       0.180300
      9 O5           1.9490    -0.5990     0.5050 os         1 26O      -0.458000
     10 C6           3.4190    -0.8990     2.4430 c3         1 26O       0.172600
     11 O6           3.1310    -2.3100     2.5280 oh         1 26O      -0.704000
     12 NAL          0.3540    -0.6180    -1.1780 ns         1 26O      -0.429900
     13 CAM         -0.0540    -1.8610    -1.5620 cs         1 26O       0.490400
     14 NAN         -1.4250    -1.9910    -1.6390 ns         1 26O      -0.222900
     15 SAO          0.9890    -3.1070    -1.9590 s          1 26O      -0.605400
     16 NAP         -2.3460    -0.9970    -1.3140 n2         1 26O      -0.541300
     17 CAQ         -2.8810    -0.9900    -0.1280 ce         1 26O       0.449800
     18 CAR         -3.9100     0.0200     0.2730 ca         1 26O      -0.257900
     19 CAS         -4.4520     0.9790    -0.6170 ca         1 26O       0.196100
     20 CAT         -5.4090     1.9030    -0.1700 ca         1 26O      -0.162000
     21 CAU         -5.8390     1.8910     1.1660 ca         1 26O      -0.047000
     22 CAV         -5.3070     0.9460     2.0570 ca         1 26O      -0.157000
     23 CAW         -4.3500     0.0180     1.6140 ca         1 26O      -0.042000
     24 OAX         -4.0660     1.0230    -1.9190 oh         1 26O      -0.539100
     25 H1           2.4250    -0.7220    -1.5340 h2         1 26O       0.108700
     26 H2           1.1610     1.8250    -0.3260 h1         1 26O       0.053700
     27 HO2          0.8130     1.5150    -2.6490 ho         1 26O       0.518000
     28 H3           4.0460     1.2350    -1.1660 h1         1 26O       0.060700
     29 HO3          3.0350     3.4200    -1.4070 ho         1 26O       0.467000
     30 H4           2.8290     1.7090     1.6070 h1         1 26O       0.052700
     31 HO4          5.0460     2.4670     1.0160 ho         1 26O       0.525000
     32 H5           4.0180    -0.8400     0.3540 h1         1 26O       0.072700
     33 H6           4.4400    -0.7070     2.8000 h1         1 26O       0.035200
     34 H6A          2.7370    -0.3360     3.0960 h1         1 26O       0.035200
     35 HO6          3.1750    -2.5560     3.4810 ho         1 26O       0.503000
     36 HNAL        -0.3960     0.0250    -0.9580 hn         1 26O       0.323500
     37 HNAN        -1.7440    -2.9030    -1.9630 hn         1 26O       0.351500
     38 HAQ         -2.5780    -1.7130     0.6330 h4         1 26O      -0.001200
     39 HAT         -5.8190     2.6330    -0.8630 ha         1 26O       0.134000
     40 HAU         -6.5810     2.6090     1.5090 ha         1 26O       0.119000
     41 HAV         -5.6370     0.9330     3.0930 ha         1 26O       0.123000
     42 HAW         -3.9480    -0.7060     2.3220 ha         1 26O       0.113000
     43 HOAX        -3.3900     0.3080    -2.0240 ho         1 26O       0.495000
@<TRIPOS>BOND
     1     1     2 1   
     2     1     9 1   
     3     1    12 1   
     4     1    25 1   
     5     2     3 1   
     6     2     4 1   
     7     2    26 1   
     8     3    27 1   
     9     4     5 1   
    10     4     6 1   
    11     4    28 1   
    12     5    29 1   
    13     6     7 1   
    14     6     8 1   
    15     6    30 1   
    16     7    31 1   
    17     8     9 1   
    18     8    10 1   
    19     8    32 1   
    20    10    11 1   
    21    10    33 1   
    22    10    34 1   
    23    11    35 1   
    24    12    13 1   
    25    12    36 1   
    26    13    14 1   
    27    13    15 2   
    28    14    16 1   
    29    14    37 1   
    30    16    17 2   
    31    17    18 1   
    32    17    38 1   
    33    18    19 ar  
    34    18    23 ar  
    35    19    20 ar  
    36    19    24 1   
    37    20    21 ar  
    38    20    39 1   
    39    21    22 ar  
    40    21    40 1   
    41    22    23 ar  
    42    22    41 1   
    43    23    42 1   
    44    24    43 1   
@<TRIPOS>SUBSTRUCTURE
     1 26O         1 TEMP              0 ****  ****    0 ROOT
