@<TRIPOS>MOLECULE
26P
   22    21     1     0     0
SMALL
No Charge or Current Charge


@<TRIPOS>ATOM
      1 C1          15.1770     4.1610     1.3510 c          1 26P       0.721000
      2 O11         15.6130     3.0720     0.9980 o          1 26P      -0.743500
      3 O12         15.8830     5.0270     1.8550 o          1 26P      -0.743500
      4 C2          13.6110     4.4150     1.2530 c3         1 26P       0.017500
      5 N2          12.8930     4.6800     2.5520 n8         1 26P      -0.999200
      6 C3          13.2650     5.5420     0.2410 c3         1 26P      -0.081400
      7 C4          13.7910     5.2860    -1.1920 c3         1 26P      -0.060400
      8 C5          13.3740     6.3890    -2.1930 c3         1 26P      -0.185400
      9 C6          13.9210     6.0970    -3.6070 c          1 26P       0.459100
     10 O6          13.3130     5.3320    -4.3640 o          1 26P      -0.585100
     11 C7          15.3090     6.8260    -4.0320 c          1 26P       0.648000
     12 O71         15.4620     8.0140    -3.7580 o          1 26P      -0.727500
     13 O72         16.1560     6.1700    -4.6360 o          1 26P      -0.727500
     14 H2          13.1790     3.4880     0.8480 h1         1 26P       0.045700
     15 HN21        11.9330     4.9820     2.3500 hn         1 26P       0.370500
     16 HN22        13.3210     5.5000     2.9990 hn         1 26P       0.370500
     17 H31         12.1740     5.6590     0.1940 hc         1 26P       0.009200
     18 H32         13.6700     6.4940     0.6040 hc         1 26P       0.009200
     19 H41         14.8860     5.2160    -1.1750 hc         1 26P       0.055700
     20 H42         13.4140     4.3170    -1.5460 hc         1 26P       0.055700
     21 H51         12.2790     6.4400    -2.2290 hc         1 26P       0.046700
     22 H52         13.7880     7.3360    -1.8270 hc         1 26P       0.046700
@<TRIPOS>BOND
     1     1     2 1   
     2     1     3 1   
     3     1     4 1   
     4     4     5 1   
     5     4     6 1   
     6     4    14 1   
     7     5    15 1   
     8     5    16 1   
     9     6     7 1   
    10     6    17 1   
    11     6    18 1   
    12     7     8 1   
    13     7    19 1   
    14     7    20 1   
    15     8     9 1   
    16     8    21 1   
    17     8    22 1   
    18     9    10 2   
    19     9    11 1   
    20    11    12 1   
    21    11    13 1   
@<TRIPOS>SUBSTRUCTURE
     1 26P         1 TEMP              0 ****  ****    0 ROOT
