@<TRIPOS>MOLECULE
26P
   22    21     1     0     0
SMALL
abcg2


@<TRIPOS>ATOM
      1 C1          14.7160     3.7320     1.5070 c          1 26P       0.721000
      2 O11         14.9120     2.6720     0.8600 o          1 26P      -0.743500
      3 O12         15.5280     4.2780     2.2990 o          1 26P      -0.743500
      4 C2          13.3690     4.4610     1.2880 c3         1 26P       0.017500
      5 N2          12.8590     4.9290     2.5870 n8         1 26P      -0.999200
      6 C3          13.5390     5.6030     0.2720 c3         1 26P      -0.081400
      7 C4          13.9200     5.1550    -1.1370 c3         1 26P      -0.060400
      8 C5          14.0250     6.3300    -2.0980 c3         1 26P      -0.185400
      9 C6          14.3550     5.9720    -3.5250 c          1 26P       0.459100
     10 O6          14.5310     4.8240    -3.9040 o          1 26P      -0.585100
     11 C7          14.4540     7.1440    -4.5070 c          1 26P       0.648000
     12 O71         13.3770     7.4810    -5.0500 o          1 26P      -0.727500
     13 O72         15.5960     7.6350    -4.6570 o          1 26P      -0.727500
     14 H2          12.6610     3.7360     0.8780 h1         1 26P       0.045700
     15 HN21        12.1400     5.6310     2.4380 hn         1 26P       0.370500
     16 HN22        13.6290     5.3920     3.0620 hn         1 26P       0.370500
     17 H31         12.5910     6.1530     0.2270 hc         1 26P       0.009200
     18 H32         14.2890     6.3020     0.6580 hc         1 26P       0.009200
     19 H41         14.8690     4.6160    -1.1150 hc         1 26P       0.055700
     20 H42         13.1740     4.4470    -1.5090 hc         1 26P       0.055700
     21 H51         13.0910     6.9040    -2.1230 hc         1 26P       0.046700
     22 H52         14.7870     7.0450    -1.7650 hc         1 26P       0.046700
@<TRIPOS>BOND
     1     1     2 1   
     2     1     3 1   
     3     1     4 1   
     4     4     5 1   
     5     4     6 1   
     6     4    14 1   
     7     5    15 1   
     8     5    16 1   
     9     6     7 1   
    10     6    17 1   
    11     6    18 1   
    12     7     8 1   
    13     7    19 1   
    14     7    20 1   
    15     8     9 1   
    16     8    21 1   
    17     8    22 1   
    18     9    10 2   
    19     9    11 1   
    20    11    12 1   
    21    11    13 1   
@<TRIPOS>SUBSTRUCTURE
     1 26P         1 TEMP              0 ****  ****    0 ROOT
