@<TRIPOS>MOLECULE
26Q
   51    53     1     0     0
SMALL
No Charge or Current Charge


@<TRIPOS>ATOM
      1 C17         -7.3790     1.2400     0.7920 ca         1 26Q      -0.097000
      2 C16         -8.7420     1.3460     1.1210 ca         1 26Q      -0.111000
      3 C15         -9.5930     0.2410     0.9580 ca         1 26Q      -0.104000
      4 C14         -9.0790    -0.9690     0.4660 ca         1 26Q      -0.111000
      5 C13         -7.7170    -1.0750     0.1370 ca         1 26Q      -0.097000
      6 C12         -6.8370     0.0270     0.2930 cp         1 26Q      -0.041000
      7 C9          -5.3840    -0.0850    -0.0570 cp         1 26Q      -0.015000
      8 C8          -4.9500    -0.8860    -1.1410 ca         1 26Q      -0.107000
      9 C7          -3.5880    -0.9910    -1.4700 ca         1 26Q      -0.085000
     10 C10         -4.3940     0.6060     0.6840 ca         1 26Q      -0.107000
     11 C11         -3.0310     0.5010     0.3570 ca         1 26Q      -0.085000
     12 C6          -2.6140    -0.2990    -0.7250 ca         1 26Q      -0.077800
     13 C5          -1.1740    -0.4320    -1.0990 ce         1 26Q      -0.068200
     14 C4          -0.0780     0.1550    -0.5310 cf         1 26Q      -0.305200
     15 C2           1.3120    -0.0600    -1.0010 c          1 26Q       0.615300
     16 O3           1.5860    -0.7820    -1.9480 o          1 26Q      -0.584100
     17 N1           2.2680     0.6280    -0.3020 ns         1 26Q      -0.504900
     18 C1           3.7050     0.4670    -0.4830 c6         1 26Q       0.300700
     19 O5           4.0780    -0.6940     0.2850 os         1 26Q      -0.460000
     20 C19          5.4820    -1.0570     0.1840 c6         1 26Q       0.178300
     21 C18          5.7090    -2.3900     0.9730 c3         1 26Q       0.172600
     22 O6           4.8690    -3.4750     0.5240 oh         1 26Q      -0.706000
     23 C20          6.3680     0.1090     0.7240 c6         1 26Q       0.143300
     24 O4           7.7760    -0.1670     0.5970 oh         1 26Q      -0.715000
     25 C3           6.0200     1.4150    -0.0470 c6         1 26Q       0.139300
     26 O1           6.7720     2.5290     0.4640 oh         1 26Q      -0.667000
     27 C21          4.4960     1.7110     0.0450 c6         1 26Q       0.099300
     28 O2           4.1880     2.9180    -0.6940 oh         1 26Q      -0.716000
     29 H1          -6.7410     2.1120     0.9140 ha         1 26Q       0.114500
     30 H2          -9.1380     2.2860     1.4990 ha         1 26Q       0.114000
     31 H3         -10.6480     0.3230     1.2120 ha         1 26Q       0.114000
     32 H4          -9.7360    -1.8280     0.3420 ha         1 26Q       0.114000
     33 H5          -7.3380    -2.0250    -0.2290 ha         1 26Q       0.114500
     34 H6          -5.6770    -1.4230    -1.7450 ha         1 26Q       0.118000
     35 H7          -3.2920    -1.6130    -2.3130 ha         1 26Q       0.115500
     36 H8          -4.6830     1.2200     1.5330 ha         1 26Q       0.118000
     37 H9          -2.3080     1.0460     0.9570 ha         1 26Q       0.115500
     38 H10         -1.0030    -1.0970    -1.9500 ha         1 26Q       0.198000
     39 H11         -0.2030     0.8240     0.3170 ha         1 26Q       0.177000
     40 H12          1.9470     1.1650     0.4920 hn         1 26Q       0.310500
     41 H13          3.9280     0.3030    -1.5500 h2         1 26Q       0.089700
     42 H14          5.7260    -1.2410    -0.8730 h1         1 26Q       0.067700
     43 H15          6.7650    -2.6740     0.8720 h1         1 26Q       0.034200
     44 H16          5.5270    -2.1900     2.0380 h1         1 26Q       0.034200
     45 H17          5.0390    -4.2380     1.1250 ho         1 26Q       0.503000
     46 H18          6.1170     0.2620     1.7850 h1         1 26Q       0.050700
     47 H19          8.2140     0.7170     0.6730 ho         1 26Q       0.524000
     48 H20          6.2670     1.2610    -1.1090 h1         1 26Q       0.058700
     49 H21          6.2670     3.3230     0.1650 ho         1 26Q       0.466000
     50 H22          4.2360     1.8510     1.1060 h1         1 26Q       0.049700
     51 H23          3.2060     3.0070    -0.7200 ho         1 26Q       0.516000
@<TRIPOS>BOND
     1     1     2 ar  
     2     1     6 ar  
     3     1    29 1   
     4     2     3 ar  
     5     2    30 1   
     6     3     4 ar  
     7     3    31 1   
     8     4     5 ar  
     9     4    32 1   
    10     5     6 ar  
    11     5    33 1   
    12     6     7 1   
    13     7     8 ar  
    14     7    10 ar  
    15     8     9 ar  
    16     8    34 1   
    17     9    12 ar  
    18     9    35 1   
    19    10    11 ar  
    20    10    36 1   
    21    11    12 ar  
    22    11    37 1   
    23    12    13 1   
    24    13    14 2   
    25    13    38 1   
    26    14    15 1   
    27    14    39 1   
    28    15    16 2   
    29    15    17 1   
    30    17    18 1   
    31    17    40 1   
    32    18    19 1   
    33    18    27 1   
    34    18    41 1   
    35    19    20 1   
    36    20    21 1   
    37    20    23 1   
    38    20    42 1   
    39    21    22 1   
    40    21    43 1   
    41    21    44 1   
    42    22    45 1   
    43    23    24 1   
    44    23    25 1   
    45    23    46 1   
    46    24    47 1   
    47    25    26 1   
    48    25    27 1   
    49    25    48 1   
    50    26    49 1   
    51    27    28 1   
    52    27    50 1   
    53    28    51 1   
@<TRIPOS>SUBSTRUCTURE
     1 26Q         1 TEMP              0 ****  ****    0 ROOT
