@<TRIPOS>MOLECULE
26Q
   51    53     1     0     0
SMALL
bcc


@<TRIPOS>ATOM
      1 C17         -7.2850     1.1770     0.9080 ca         1 26Q      -0.115000
      2 C16         -8.6390     1.2860     1.1910 ca         1 26Q      -0.129000
      3 C15         -9.5150     0.2750     0.8200 ca         1 26Q      -0.122000
      4 C14         -9.0250    -0.8480     0.1650 ca         1 26Q      -0.129000
      5 C13         -7.6720    -0.9570    -0.1170 ca         1 26Q      -0.115000
      6 C12         -6.7810     0.0540     0.2490 cp         1 26Q      -0.041000
      7 C9          -5.3420    -0.0610    -0.0560 cp         1 26Q      -0.015000
      8 C8          -4.9020    -0.6780    -1.2270 ca         1 26Q      -0.125000
      9 C7          -3.5500    -0.7850    -1.5070 ca         1 26Q      -0.103000
     10 C10         -4.3770     0.4440     0.8220 ca         1 26Q      -0.125000
     11 C11         -3.0290     0.3410     0.5410 ca         1 26Q      -0.103000
     12 C6          -2.5870    -0.2740    -0.6340 ca         1 26Q      -0.077800
     13 C5          -1.1810    -0.4070    -0.9920 ce         1 26Q      -0.018200
     14 C4          -0.1310     0.0880    -0.3270 cf         1 26Q      -0.255200
     15 C2           1.2440    -0.1320    -0.8260 c          1 26Q       0.682300
     16 O3           1.4940    -0.7640    -1.8410 o          1 26Q      -0.584100
     17 N1           2.2060     0.4510    -0.0650 ns         1 26Q      -0.571900
     18 C1           3.6020     0.3070    -0.3130 c6         1 26Q       0.277500
     19 O5           4.0990    -0.7260     0.5050 os         1 26Q      -0.413600
     20 C19          5.4570    -1.0280     0.2600 c6         1 26Q       0.155100
     21 C18          5.8270    -2.2270     1.1090 c3         1 26Q       0.149400
     22 O6           5.0590    -3.3300     0.6930 oh         1 26Q      -0.583800
     23 C20          6.3210     0.1920     0.5850 c6         1 26Q       0.120100
     24 O4           7.6560    -0.1220     0.2790 oh         1 26Q      -0.592800
     25 C3           5.8350     1.3910    -0.2210 c6         1 26Q       0.116100
     26 O1           6.5940     2.5060     0.1780 oh         1 26Q      -0.604800
     27 C21          4.3440     1.6120    -0.0150 c6         1 26Q       0.076100
     28 O2           3.9440     2.6410    -0.8830 oh         1 26Q      -0.593800
     29 H1          -6.6210     1.9860     1.1870 ha         1 26Q       0.132500
     30 H2          -9.0110     2.1690     1.6940 ha         1 26Q       0.132000
     31 H3         -10.5710     0.3600     1.0400 ha         1 26Q       0.132000
     32 H4          -9.6980    -1.6460    -0.1220 ha         1 26Q       0.132000
     33 H5          -7.3040    -1.8490    -0.6080 ha         1 26Q       0.132500
     34 H6          -5.6190    -1.0640    -1.9410 ha         1 26Q       0.136000
     35 H7          -3.2350    -1.2630    -2.4270 ha         1 26Q       0.133500
     36 H8          -4.6840     0.9050     1.7520 ha         1 26Q       0.136000
     37 H9          -2.3170     0.7350     1.2560 ha         1 26Q       0.133500
     38 H10         -0.9850    -0.9650    -1.9020 ha         1 26Q       0.148000
     39 H11         -0.2530     0.6650     0.5820 ha         1 26Q       0.127000
     40 H12          1.9280     0.8890     0.8010 hn         1 26Q       0.310500
     41 H13          3.7340     0.0540    -1.3730 h2         1 26Q       0.089700
     42 H14          5.6010    -1.2840    -0.8030 h1         1 26Q       0.067700
     43 H15          6.9000    -2.4130     0.9970 h1         1 26Q       0.034200
     44 H16          5.6490    -1.9830     2.1660 h1         1 26Q       0.034200
     45 H17          5.3130    -4.0860     1.2290 ho         1 26Q       0.404000
     46 H18          6.2030     0.4210     1.6570 h1         1 26Q       0.050700
     47 H19          8.2030     0.6380     0.5020 ho         1 26Q       0.425000
     48 H20          6.0000     1.1670    -1.2870 h1         1 26Q       0.058700
     49 H21          6.4190     3.2300    -0.4310 ho         1 26Q       0.427000
     50 H22          4.1690     1.8810     1.0390 h1         1 26Q       0.049700
     51 H23          3.0560     2.9240    -0.6450 ho         1 26Q       0.417000
@<TRIPOS>BOND
     1     1     2 ar  
     2     1     6 ar  
     3     1    29 1   
     4     2     3 ar  
     5     2    30 1   
     6     3     4 ar  
     7     3    31 1   
     8     4     5 ar  
     9     4    32 1   
    10     5     6 ar  
    11     5    33 1   
    12     6     7 1   
    13     7     8 ar  
    14     7    10 ar  
    15     8     9 ar  
    16     8    34 1   
    17     9    12 ar  
    18     9    35 1   
    19    10    11 ar  
    20    10    36 1   
    21    11    12 ar  
    22    11    37 1   
    23    12    13 1   
    24    13    14 2   
    25    13    38 1   
    26    14    15 1   
    27    14    39 1   
    28    15    16 2   
    29    15    17 1   
    30    17    18 1   
    31    17    40 1   
    32    18    19 1   
    33    18    27 1   
    34    18    41 1   
    35    19    20 1   
    36    20    21 1   
    37    20    23 1   
    38    20    42 1   
    39    21    22 1   
    40    21    43 1   
    41    21    44 1   
    42    22    45 1   
    43    23    24 1   
    44    23    25 1   
    45    23    46 1   
    46    24    47 1   
    47    25    26 1   
    48    25    27 1   
    49    25    48 1   
    50    26    49 1   
    51    27    28 1   
    52    27    50 1   
    53    28    51 1   
@<TRIPOS>SUBSTRUCTURE
     1 26Q         1 TEMP              0 ****  ****    0 ROOT
