@<TRIPOS>MOLECULE
26R
   55    56     1     0     0
SMALL
No Charge or Current Charge


@<TRIPOS>ATOM
      1 C14          7.6010    -0.6290     2.0400 c3         1 26R      -0.084100
      2 C13          7.5450    -0.2870     0.5340 c3         1 26R      -0.016400
      3 C15          8.2440    -1.3660    -0.3220 c3         1 26R      -0.084100
      4 C10          6.1080    -0.0430     0.0670 ca         1 26R      -0.072300
      5 C9           5.1440    -1.0700     0.1230 ca         1 26R      -0.106000
      6 C8           3.8270    -0.8360    -0.3070 ca         1 26R      -0.106500
      7 C11          5.7300     1.2210    -0.4280 ca         1 26R      -0.106000
      8 C12          4.4130     1.4550    -0.8580 ca         1 26R      -0.106500
      9 C7           3.4520     0.4280    -0.7990 ca         1 26R      -0.084300
     10 C6           2.0200     0.6790    -1.2600 c3         1 26R      -0.020100
     11 C4           1.0140     0.8020    -0.0850 c3         1 26R      -0.136700
     12 C5           1.3340     1.9900     0.8570 c3         1 26R      -0.088100
     13 C2          -0.4320     0.8960    -0.6130 c          1 26R       0.609100
     14 O3          -0.8170     1.8100    -1.3290 o          1 26R      -0.574100
     15 N1          -1.2570    -0.1360    -0.2400 ns         1 26R      -0.505900
     16 C1          -2.6920    -0.1810    -0.4940 c6         1 26R       0.299700
     17 O5          -3.3020     0.6230     0.5340 os         1 26R      -0.462000
     18 C18         -4.7450     0.7530     0.4190 c6         1 26R       0.179300
     19 C16         -5.2450     1.7400     1.5270 c3         1 26R       0.172600
     20 O6          -4.6110     3.0350     1.4730 oh         1 26R      -0.706000
     21 C17         -5.4110    -0.6550     0.5350 c6         1 26R       0.143300
     22 O4          -6.8410    -0.6000     0.3710 oh         1 26R      -0.715000
     23 C3          -4.7980    -1.5990    -0.5390 c6         1 26R       0.140300
     24 O1          -5.3410    -2.9260    -0.4260 oh         1 26R      -0.666000
     25 C19         -3.2490    -1.6430    -0.4040 c6         1 26R       0.099300
     26 O2          -2.6960    -2.5100    -1.4240 oh         1 26R      -0.716000
     27 H1           7.0890    -1.5750     2.2510 hc         1 26R       0.034867
     28 H2           8.6400    -0.7200     2.3770 hc         1 26R       0.034867
     29 H3           7.1200     0.1610     2.6300 hc         1 26R       0.034867
     30 H4           8.1210     0.6380     0.4020 hc         1 26R       0.048700
     31 H5           7.7590    -2.3420    -0.2050 hc         1 26R       0.034867
     32 H6           8.2130    -1.0920    -1.3840 hc         1 26R       0.034867
     33 H7           9.2960    -1.4700    -0.0290 hc         1 26R       0.034867
     34 H8           5.4120    -2.0540     0.5010 ha         1 26R       0.111000
     35 H9           3.0960    -1.6400    -0.2560 ha         1 26R       0.110000
     36 H10          6.4570     2.0290    -0.4800 ha         1 26R       0.111000
     37 H11          4.1390     2.4380    -1.2340 ha         1 26R       0.110000
     38 H12          1.9710     1.5870    -1.8750 hc         1 26R       0.062200
     39 H13          1.7020    -0.1420    -1.9150 hc         1 26R       0.062200
     40 H14          1.0930    -0.1130     0.5150 hc         1 26R       0.049700
     41 H15          1.3180     2.9400     0.3090 hc         1 26R       0.046700
     42 H16          0.5960     2.0490     1.6660 hc         1 26R       0.046700
     43 H17          2.3240     1.8750     1.3140 hc         1 26R       0.046700
     44 H18         -0.8640    -0.8240     0.3890 hn         1 26R       0.308500
     45 H19         -2.9060     0.2450    -1.4870 h2         1 26R       0.088700
     46 H20         -4.9860     1.1910    -0.5610 h1         1 26R       0.067700
     47 H21         -6.3320     1.8540     1.4210 h1         1 26R       0.034200
     48 H22         -5.0630     1.2730     2.5050 h1         1 26R       0.034200
     49 H23         -4.9430     3.5500     2.2450 ho         1 26R       0.502000
     50 H24         -5.1700    -1.0630     1.5280 h1         1 26R       0.050700
     51 H25         -7.1060    -1.5290     0.1610 ho         1 26R       0.525000
     52 H26         -5.0360    -1.1880    -1.5320 h1         1 26R       0.058700
     53 H27         -4.6870    -3.4990    -0.8920 ho         1 26R       0.466000
     54 H28         -3.0010    -2.0380     0.5930 h1         1 26R       0.049700
     55 H29         -1.7130    -2.4400    -1.3730 ho         1 26R       0.516000
@<TRIPOS>BOND
     1     1     2 1   
     2     1    27 1   
     3     1    28 1   
     4     1    29 1   
     5     2     3 1   
     6     2     4 1   
     7     2    30 1   
     8     3    31 1   
     9     3    32 1   
    10     3    33 1   
    11     4     5 ar  
    12     4     7 ar  
    13     5     6 ar  
    14     5    34 1   
    15     6     9 ar  
    16     6    35 1   
    17     7     8 ar  
    18     7    36 1   
    19     8     9 ar  
    20     8    37 1   
    21     9    10 1   
    22    10    11 1   
    23    10    38 1   
    24    10    39 1   
    25    11    12 1   
    26    11    13 1   
    27    11    40 1   
    28    12    41 1   
    29    12    42 1   
    30    12    43 1   
    31    13    14 2   
    32    13    15 1   
    33    15    16 1   
    34    15    44 1   
    35    16    17 1   
    36    16    25 1   
    37    16    45 1   
    38    17    18 1   
    39    18    19 1   
    40    18    21 1   
    41    18    46 1   
    42    19    20 1   
    43    19    47 1   
    44    19    48 1   
    45    20    49 1   
    46    21    22 1   
    47    21    23 1   
    48    21    50 1   
    49    22    51 1   
    50    23    24 1   
    51    23    25 1   
    52    23    52 1   
    53    24    53 1   
    54    25    26 1   
    55    25    54 1   
    56    26    55 1   
@<TRIPOS>SUBSTRUCTURE
     1 26R         1 TEMP              0 ****  ****    0 ROOT
