@<TRIPOS>MOLECULE
26S
   72    75     1     0     0
SMALL
abcg2


@<TRIPOS>ATOM
      1 C1          -5.1070     1.2780    -0.0990 ca         1 26S      -0.057500
      2 C2          -3.4470     1.9290     1.4840 ca         1 26S      -0.057500
      3 C3          -0.5260    -5.7880     0.5940 ca         1 26S      -0.132000
      4 C4           1.8620    -5.9760     0.6140 ca         1 26S      -0.132000
      5 C5          -5.7730     2.4750     0.0950 ca         1 26S      -0.173500
      6 C6          -4.0990     3.1380     1.6910 ca         1 26S      -0.173500
      7 C7          -0.4390    -4.5960    -0.1080 ca         1 26S       0.001500
      8 C8           1.9680    -4.7940    -0.0980 ca         1 26S       0.001500
      9 C9           3.9860     2.4250    -0.0590 ca         1 26S      -0.353000
     10 C10          0.6160    -6.4920     0.9690 ca         1 26S      -0.019300
     11 C11         -3.9360     0.9810     0.5940 ca         1 26S      -0.153300
     12 C12         -5.2730     3.4180     0.9930 ca         1 26S       0.146100
     13 C13          0.8130    -4.1040    -0.4460 ca         1 26S      -0.260500
     14 C14          2.7170     2.0900     0.4280 ca         1 26S       0.424900
     15 C15          4.1280     3.7180    -0.5380 ca         1 26S       0.409300
     16 C16          1.9890     4.1720    -0.0780 ca         1 26S       0.424300
     17 C17         -0.8250    -0.8670     0.4400 c          1 26S       0.608100
     18 C18          3.3000    -0.2720     0.8320 c6         1 26S       0.205800
     19 C19          2.8880    -1.0860    -0.3810 c6         1 26S       0.178800
     20 C20          1.0760     0.4560     1.1960 c6         1 26S       0.210800
     21 C21          0.5460    -0.3600     0.0030 c6         1 26S       0.109500
     22 C22          0.4730    -8.9770     0.6970 c3         1 26S      -0.087100
     23 C23         -5.5220     5.5380     2.0310 c3         1 26S       0.148900
     24 C24          5.4810     5.3990    -1.5020 c3         1 26S       0.161900
     25 C25          1.1400     6.3180    -0.5780 c3         1 26S       0.165900
     26 C27         -3.2240    -0.3290     0.3870 c3         1 26S       0.153300
     27 N28          1.7170     2.9790     0.4060 nb         1 26S      -0.300000
     28 N29          3.1430     4.6040    -0.5540 nb         1 26S      -0.370000
     29 N30          2.4360     0.8770     0.9790 nh         1 26S      -0.753300
     30 N31          1.4700    -1.4590    -0.2760 n3         1 26S      -0.729500
     31 N32         -1.8450    -0.1190     0.0030 ns         1 26S      -0.481900
     32 O33         -0.9320    -1.7990     1.2190 o          1 26S      -0.604100
     33 O36         -5.9790     4.5590     1.1210 os         1 26S      -0.342100
     34 O37          5.3160     4.0750    -1.0040 os         1 26S      -0.454300
     35 O38          0.9550     5.0040    -0.0680 os         1 26S      -0.438300
     36 S39          0.9570    -2.6110    -1.3780 sy         1 26S       1.151600
     37 H1          -5.5100     0.5610    -0.8050 ha         1 26S       0.116000
     38 H2          -2.5350     1.7340     2.0350 ha         1 26S       0.116000
     39 H3          -1.5030    -6.1760     0.8530 ha         1 26S       0.115500
     40 H4           2.7640    -6.5080     0.8890 ha         1 26S       0.115500
     41 H5          -6.6840     2.6880    -0.4510 ha         1 26S       0.123500
     42 H6          -3.6770     3.8420     2.3950 ha         1 26S       0.123500
     43 H7          -1.3390    -4.0680    -0.3850 ha         1 26S       0.131500
     44 H8           2.9480    -4.4260    -0.3740 ha         1 26S       0.131500
     45 H9           4.8220     1.7450    -0.0780 ha         1 26S       0.146000
     46 H18          3.2210    -0.8780     1.7370 h1         1 26S       0.071200
     47 H18A         4.3440     0.0140     0.7350 h1         1 26S       0.071200
     48 H19          3.0860    -0.5110    -1.2900 h1         1 26S       0.063200
     49 H19A         3.5020    -1.9850    -0.4120 h1         1 26S       0.063200
     50 H20          0.4320     1.3160     1.3530 h1         1 26S       0.089700
     51 H20A         1.0510    -0.1660     2.0940 h1         1 26S       0.089700
     52 H21          0.4610     0.3120    -0.8610 h1         1 26S       0.063700
     53 H22          0.3960    -9.9270     1.2240 hc         1 26S       0.037367
     54 H22A        -0.3790    -8.8960     0.0220 hc         1 26S       0.037367
     55 H22B         1.3800    -9.0030     0.0910 hc         1 26S       0.037367
     56 H23         -6.2290     6.3620     1.9790 h1         1 26S       0.041033
     57 H23A        -5.4960     5.1630     3.0580 h1         1 26S       0.041033
     58 H23B        -4.5290     5.9120     1.7690 h1         1 26S       0.041033
     59 H24          5.3160     6.1440    -0.7230 h1         1 26S       0.048700
     60 H24A         6.5110     5.4570    -1.8440 h1         1 26S       0.048700
     61 H24B         4.8090     5.6060    -2.3340 h1         1 26S       0.048700
     62 H25          0.1760     6.8110    -0.4810 h1         1 26S       0.048367
     63 H25A         1.8870     6.8710    -0.0080 h1         1 26S       0.048367
     64 H25B         1.4370     6.3070    -1.6270 h1         1 26S       0.048367
     65 H26          1.3490    -7.9310     2.3660 hc         1 26S       0.050200
     66 H26A        -0.3990    -7.8210     2.2940 hc         1 26S       0.050200
     67 H27         -3.2300    -0.9200     1.3020 h1         1 26S       0.062200
     68 H27A        -3.7460    -0.9180    -0.3720 h1         1 26S       0.062200
     69 HN32        -1.6730     0.5610    -0.7210 hn         1 26S       0.325500
     70 C26          0.5060    -7.8090     1.6830 c3         1 26S      -0.041100
     71 O34          2.0220    -2.8180    -2.3490 o          1 26S      -0.549000
     72 O35         -0.3650    -2.2230    -1.8470 o          1 26S      -0.549000
@<TRIPOS>BOND
     1     1     5 ar  
     2     1    11 ar  
     3     1    37 1   
     4     2     6 ar  
     5     2    11 ar  
     6     2    38 1   
     7     3     7 ar  
     8     3    10 ar  
     9     3    39 1   
    10     4     8 ar  
    11     4    10 ar  
    12     4    40 1   
    13     5    12 ar  
    14     5    41 1   
    15     6    12 ar  
    16     6    42 1   
    17     7    13 ar  
    18     7    43 1   
    19     8    13 ar  
    20     8    44 1   
    21     9    14 ar  
    22     9    15 ar  
    23     9    45 1   
    24    10    70 1   
    25    11    26 1   
    26    12    33 1   
    27    13    36 1   
    28    14    27 ar  
    29    14    29 1   
    30    15    28 ar  
    31    15    34 1   
    32    16    27 ar  
    33    16    28 ar  
    34    16    35 1   
    35    17    21 1   
    36    17    31 1   
    37    17    32 2   
    38    18    19 1   
    39    18    29 1   
    40    18    46 1   
    41    18    47 1   
    42    19    30 1   
    43    19    48 1   
    44    19    49 1   
    45    20    21 1   
    46    20    29 1   
    47    20    50 1   
    48    20    51 1   
    49    21    30 1   
    50    21    52 1   
    51    22    53 1   
    52    22    54 1   
    53    22    55 1   
    54    22    70 1   
    55    23    33 1   
    56    23    56 1   
    57    23    57 1   
    58    23    58 1   
    59    24    34 1   
    60    24    59 1   
    61    24    60 1   
    62    24    61 1   
    63    25    35 1   
    64    25    62 1   
    65    25    63 1   
    66    25    64 1   
    67    26    31 1   
    68    26    67 1   
    69    26    68 1   
    70    30    36 1   
    71    31    69 1   
    72    36    71 2   
    73    36    72 2   
    74    65    70 1   
    75    66    70 1   
@<TRIPOS>SUBSTRUCTURE
     1 26S         1 TEMP              0 ****  ****    0 ROOT
