@<TRIPOS>MOLECULE
26S
   72    75     1     0     0
SMALL
No Charge or Current Charge


@<TRIPOS>ATOM
      1 C1          -4.2880     1.7260    -0.0560 ca         1 26S      -0.057500
      2 C2          -3.7190     1.7690     2.3090 ca         1 26S      -0.057500
      3 C3          -0.7010    -6.0710    -0.1530 ca         1 26S      -0.132000
      4 C4           1.3930    -6.0040     1.0800 ca         1 26S      -0.132000
      5 C5          -4.9230     2.9720     0.0770 ca         1 26S      -0.173500
      6 C6          -4.3550     3.0160     2.4410 ca         1 26S      -0.173500
      7 C7          -0.3280    -4.9120    -0.8560 ca         1 26S       0.001500
      8 C8           1.7710    -4.8450     0.3800 ca         1 26S       0.001500
      9 C9           3.9740     2.8790     0.2130 ca         1 26S      -0.353000
     10 C10          0.1550    -6.6220     0.8190 ca         1 26S      -0.019300
     11 C11         -3.6840     1.1180     1.0610 ca         1 26S      -0.153300
     12 C12         -4.9620     3.6230     1.3200 ca         1 26S       0.146100
     13 C13          0.9090    -4.2940    -0.5870 ca         1 26S      -0.260500
     14 C14          2.7560     2.2000     0.2360 ca         1 26S       0.424900
     15 C15          4.0200     4.1080    -0.4400 ca         1 26S       0.409300
     16 C16          1.7870     3.9100    -0.9530 ca         1 26S       0.424300
     17 C17         -0.6680    -1.0700     0.4580 c          1 26S       0.608100
     18 C18          3.6400    -0.1210     0.6730 c6         1 26S       0.205800
     19 C19          3.1930    -1.0860    -0.4610 c6         1 26S       0.178800
     20 C20          1.2890     0.3640     1.1940 c6         1 26S       0.210800
     21 C21          0.8020    -0.6370     0.0880 c6         1 26S       0.109500
     22 C22          0.2110    -9.1630     0.8600 c3         1 26S      -0.087100
     23 C23         -5.6930     5.5940     2.6130 c3         1 26S       0.148900
     24 C24          5.3500     6.0550    -1.1170 c3         1 26S       0.161900
     25 C25          0.6390     5.6800    -2.2210 c3         1 26S       0.165900
     26 C27         -2.9880    -0.2250     0.9190 c3         1 26S       0.153300
     27 N28          1.6610     2.7210    -0.3420 nb         1 26S      -0.300000
     28 N29          2.9270     4.6260    -1.0270 nb         1 26S      -0.370000
     29 N30          2.6270     0.9510     0.8820 nh         1 26S      -0.753300
     30 N31          1.8440    -1.7120    -0.2430 n3         1 26S      -0.729500
     31 N32         -1.5770    -0.0380     0.6020 ns         1 26S      -0.481900
     32 O33         -1.0420    -2.2310     0.5530 o          1 26S      -0.604100
     33 O36         -5.5990     4.8450     1.3880 os         1 26S      -0.342100
     34 O37          5.2210     4.7770    -0.4610 os         1 26S      -0.454300
     35 O38          0.6440     4.4100    -1.5370 os         1 26S      -0.438300
     36 S39          1.4150    -2.8220    -1.4880 sy         1 26S       1.151600
     37 H1          -4.2630     1.2340    -1.0270 ha         1 26S       0.116000
     38 H2          -3.2520     1.3100     3.1780 ha         1 26S       0.116000
     39 H3          -1.6580    -6.5410    -0.3670 ha         1 26S       0.115500
     40 H4           2.0650    -6.4230     1.8250 ha         1 26S       0.115500
     41 H5          -5.3880     3.4370    -0.7890 ha         1 26S       0.123500
     42 H6          -4.3660     3.4940     3.4160 ha         1 26S       0.123500
     43 H7          -1.0030    -4.4970    -1.6030 ha         1 26S       0.131500
     44 H8           2.7310    -4.3770     0.5920 ha         1 26S       0.131500
     45 H9           4.8570     2.4830     0.6980 ha         1 26S       0.146000
     46 H18          3.7760    -0.6960     1.6000 h1         1 26S       0.071200
     47 H18A         4.6240     0.2940     0.4170 h1         1 26S       0.071200
     48 H19          3.1990    -0.5240    -1.4070 h1         1 26S       0.063200
     49 H19A         3.9690    -1.8610    -0.5430 h1         1 26S       0.063200
     50 H20          0.5520     1.1620     1.3600 h1         1 26S       0.089700
     51 H20A         1.3450    -0.1810     2.1490 h1         1 26S       0.089700
     52 H21          0.6640    -0.0250    -0.8160 h1         1 26S       0.063700
     53 H22         -0.0950   -10.0500     1.4270 hc         1 26S       0.037367
     54 H22A        -0.2300    -9.2260    -0.1420 hc         1 26S       0.037367
     55 H22B         1.3020    -9.1780     0.7590 hc         1 26S       0.037367
     56 H23         -6.2380     6.5310     2.4450 h1         1 26S       0.041033
     57 H23A        -6.2310     5.0220     3.3800 h1         1 26S       0.041033
     58 H23B        -4.6950     5.8450     2.9950 h1         1 26S       0.041033
     59 H24          4.6780     6.7970    -0.6650 h1         1 26S       0.048700
     60 H24A         6.3780     6.4290    -1.0270 h1         1 26S       0.048700
     61 H24B         5.1100     5.9730    -2.1850 h1         1 26S       0.048700
     62 H25         -0.3620     5.8980    -2.6140 h1         1 26S       0.048367
     63 H25A         0.9200     6.4930    -1.5390 h1         1 26S       0.048367
     64 H25B         1.3410     5.6730    -3.0650 h1         1 26S       0.048367
     65 H26          0.1710    -7.8660     2.5880 hc         1 26S       0.050200
     66 H26A        -1.3400    -7.9130     1.7000 hc         1 26S       0.050200
     67 H27         -3.0750    -0.7930     1.8550 h1         1 26S       0.062200
     68 H27A        -3.4610    -0.8120     0.1190 h1         1 26S       0.062200
     69 HN32        -1.2510     0.9060     0.4390 hn         1 26S       0.325500
     70 C26         -0.2510    -7.8800     1.5760 c3         1 26S      -0.041100
     71 O34          2.6620    -3.1520    -2.1900 o          1 26S      -0.549000
     72 O35          0.2890    -2.2470    -2.2350 o          1 26S      -0.549000
@<TRIPOS>BOND
     1     1     5 ar  
     2     1    11 ar  
     3     1    37 1   
     4     2     6 ar  
     5     2    11 ar  
     6     2    38 1   
     7     3     7 ar  
     8     3    10 ar  
     9     3    39 1   
    10     4     8 ar  
    11     4    10 ar  
    12     4    40 1   
    13     5    12 ar  
    14     5    41 1   
    15     6    12 ar  
    16     6    42 1   
    17     7    13 ar  
    18     7    43 1   
    19     8    13 ar  
    20     8    44 1   
    21     9    14 ar  
    22     9    15 ar  
    23     9    45 1   
    24    10    70 1   
    25    11    26 1   
    26    12    33 1   
    27    13    36 1   
    28    14    27 ar  
    29    14    29 1   
    30    15    28 ar  
    31    15    34 1   
    32    16    27 ar  
    33    16    28 ar  
    34    16    35 1   
    35    17    21 1   
    36    17    31 1   
    37    17    32 2   
    38    18    19 1   
    39    18    29 1   
    40    18    46 1   
    41    18    47 1   
    42    19    30 1   
    43    19    48 1   
    44    19    49 1   
    45    20    21 1   
    46    20    29 1   
    47    20    50 1   
    48    20    51 1   
    49    21    30 1   
    50    21    52 1   
    51    22    53 1   
    52    22    54 1   
    53    22    55 1   
    54    22    70 1   
    55    23    33 1   
    56    23    56 1   
    57    23    57 1   
    58    23    58 1   
    59    24    34 1   
    60    24    59 1   
    61    24    60 1   
    62    24    61 1   
    63    25    35 1   
    64    25    62 1   
    65    25    63 1   
    66    25    64 1   
    67    26    31 1   
    68    26    67 1   
    69    26    68 1   
    70    30    36 1   
    71    31    69 1   
    72    36    71 2   
    73    36    72 2   
    74    65    70 1   
    75    66    70 1   
@<TRIPOS>SUBSTRUCTURE
     1 26S         1 TEMP              0 ****  ****    0 ROOT
