@<TRIPOS>MOLECULE
26U
   53    54     1     0     0
SMALL
abcg2


@<TRIPOS>ATOM
      1 C15         -3.5470    -0.1010    -0.1860 c3         1 26U      -0.149400
      2 C33         -3.4300    -1.4490    -0.8800 c3         1 26U      -0.063400
      3 C17         -4.5400    -2.4320    -0.5040 c3         1 26U      -0.062700
      4 C12         -4.2650    -3.7940    -1.1340 c3         1 26U      -0.087600
      5 C49         -5.9250    -1.9320    -0.9030 c3         1 26U      -0.087600
      6 C14         -2.3690     0.8110    -0.4470 c          1 26U       0.614100
      7 O32         -1.4110     0.4730    -1.1340 o          1 26U      -0.619100
      8 N1          -2.4230     2.0340     0.1130 n          1 26U      -0.402800
      9 C1          -1.3200     2.9550    -0.0500 c5         1 26U       0.030700
     10 C7          -0.0910     2.4490     0.7000 c          1 26U       0.590100
     11 O22         -0.1830     1.8410     1.7540 o          1 26U      -0.585100
     12 C2          -1.8550     4.2540     0.5710 c5         1 26U      -0.081400
     13 C3          -2.8370     3.7710     1.6330 c5         1 26U      -0.093400
     14 C4          -3.4640     2.5320     1.0030 c5         1 26U       0.111000
     15 N23          1.0830     2.7760     0.1380 ns         1 26U      -0.501900
     16 C24          2.3510     2.4130     0.7120 c3         1 26U       0.150300
     17 C25          2.7950     0.9950     0.4310 ca         1 26U      -0.091300
     18 C30          2.0820     0.1300    -0.3860 ca         1 26U      -0.111500
     19 C29          2.5440    -1.1580    -0.6270 ca         1 26U      -0.075500
     20 C28          3.7280    -1.6130    -0.0540 ca         1 26U      -0.149900
     21 C21          4.2370    -2.9930    -0.2830 ce         1 26U       0.661800
     22 N46          4.9970    -3.5190     0.6000 n2         1 26U      -0.830100
     23 N47          3.7890    -3.6010    -1.4210 nv         1 26U      -1.074200
     24 C27          4.4370    -0.7450     0.7770 ca         1 26U      -0.075500
     25 C26          3.9790     0.5380     1.0100 ca         1 26U      -0.111500
     26 H15         -3.6400    -0.2470     0.8960 hc         1 26U       0.058700
     27 H15A        -4.4630     0.4170    -0.4880 hc         1 26U       0.058700
     28 H33         -3.4290    -1.3100    -1.9660 hc         1 26U       0.055200
     29 H33A        -2.4660    -1.8960    -0.6280 hc         1 26U       0.055200
     30 H17         -4.5250    -2.5560     0.5860 hc         1 26U       0.043700
     31 H12         -3.2970    -4.1930    -0.8220 hc         1 26U       0.032200
     32 H12A        -5.0280    -4.5230    -0.8550 hc         1 26U       0.032200
     33 H12B        -4.2580    -3.7250    -2.2250 hc         1 26U       0.032200
     34 H49         -6.6900    -2.6710    -0.6580 hc         1 26U       0.032200
     35 H49A        -6.1960    -1.0070    -0.3950 hc         1 26U       0.032200
     36 H49B        -5.9790    -1.7480    -1.9800 hc         1 26U       0.032200
     37 H1          -1.0810     3.0960    -1.1070 h1         1 26U       0.073700
     38 H2          -1.0620     4.8870     0.9680 hc         1 26U       0.056700
     39 H2A         -2.3760     4.8260    -0.2000 hc         1 26U       0.056700
     40 H3          -2.3100     3.5020     2.5480 hc         1 26U       0.063700
     41 H3A         -3.5850     4.5210     1.8850 hc         1 26U       0.063700
     42 H4          -4.3670     2.7850     0.4390 h1         1 26U       0.046700
     43 H4A         -3.7390     1.7890     1.7520 h1         1 26U       0.046700
     44 HN23         1.0840     3.2140    -0.7690 hn         1 26U       0.315500
     45 H24          3.1000     3.1050     0.3240 h1         1 26U       0.060200
     46 H24A         2.3180     2.5710     1.7910 h1         1 26U       0.060200
     47 H30          1.1490     0.4430    -0.8370 ha         1 26U       0.123500
     48 H29          1.9500    -1.8110    -1.2540 ha         1 26U       0.127000
     49 HN46         5.3020    -4.4470     0.3160 hn         1 26U       0.367400
     50 HN47         3.5580    -3.0230    -2.2130 hn         1 26U       0.459000
     51 HN4A         4.2230    -4.4730    -1.6760 hn         1 26U       0.459000
     52 H27          5.3580    -1.0810     1.2350 ha         1 26U       0.127000
     53 H26          4.5500     1.1960     1.6540 ha         1 26U       0.123500
@<TRIPOS>BOND
     1     1     2 1   
     2     1     6 1   
     3     1    26 1   
     4     1    27 1   
     5     2     3 1   
     6     2    28 1   
     7     2    29 1   
     8     3     4 1   
     9     3     5 1   
    10     3    30 1   
    11     4    31 1   
    12     4    32 1   
    13     4    33 1   
    14     5    34 1   
    15     5    35 1   
    16     5    36 1   
    17     6     7 2   
    18     6     8 1   
    19     8     9 1   
    20     8    14 1   
    21     9    10 1   
    22     9    12 1   
    23     9    37 1   
    24    10    11 2   
    25    10    15 1   
    26    12    13 1   
    27    12    38 1   
    28    12    39 1   
    29    13    14 1   
    30    13    40 1   
    31    13    41 1   
    32    14    42 1   
    33    14    43 1   
    34    15    16 1   
    35    15    44 1   
    36    16    17 1   
    37    16    45 1   
    38    16    46 1   
    39    17    18 ar  
    40    17    25 ar  
    41    18    19 ar  
    42    18    47 1   
    43    19    20 ar  
    44    19    48 1   
    45    20    21 1   
    46    20    24 ar  
    47    21    22 2   
    48    21    23 1   
    49    22    49 1   
    50    23    50 1   
    51    23    51 1   
    52    24    25 ar  
    53    24    52 1   
    54    25    53 1   
@<TRIPOS>SUBSTRUCTURE
     1 26U         1 TEMP              0 ****  ****    0 ROOT
