@<TRIPOS>MOLECULE
26U
   53    54     1     0     0
SMALL
No Charge or Current Charge


@<TRIPOS>ATOM
      1 C15         -4.0840    -0.2710     0.0410 c3         1 26U      -0.149400
      2 C33         -4.2800    -1.7510    -0.3800 c3         1 26U      -0.063400
      3 C17         -5.6360    -2.3730     0.0520 c3         1 26U      -0.062700
      4 C12         -5.6710    -3.8880    -0.2530 c3         1 26U      -0.087600
      5 C49         -6.8560    -1.6600    -0.5810 c3         1 26U      -0.087600
      6 C14         -2.7000     0.3370    -0.2690 c          1 26U       0.614100
      7 O32         -1.8070    -0.3290    -0.7800 o          1 26U      -0.619100
      8 N1          -2.4810     1.6940     0.0460 n          1 26U      -0.402800
      9 C1          -1.1790     2.3710    -0.2100 c5         1 26U       0.030700
     10 C7          -0.0600     2.0140     0.8220 c          1 26U       0.590100
     11 O22         -0.1900     1.4290     1.8910 o          1 26U      -0.585100
     12 C2          -1.5880     3.8690    -0.0580 c5         1 26U      -0.081400
     13 C3          -2.6550     3.8090     1.0630 c5         1 26U      -0.093400
     14 C4          -3.5060     2.5880     0.6310 c5         1 26U       0.111000
     15 N23          1.1590     2.4390     0.3370 ns         1 26U      -0.501900
     16 C24          2.4380     2.2390     1.0190 c3         1 26U       0.150300
     17 C25          3.1550     1.0010     0.5000 ca         1 26U      -0.091300
     18 C30          4.0830     1.1020    -0.5510 ca         1 26U      -0.111500
     19 C29          4.7440    -0.0420    -1.0330 ca         1 26U      -0.075500
     20 C28          4.4970    -1.3140    -0.4630 ca         1 26U      -0.149900
     21 C21          5.1680    -2.5500    -0.9890 ce         1 26U       0.661800
     22 N46          4.7380    -3.7240    -0.7730 n2         1 26U      -0.830100
     23 N47          6.3490    -2.4100    -1.6300 nv         1 26U      -1.074200
     24 C27          3.5410    -1.4080     0.5750 ca         1 26U      -0.075500
     25 C26          2.8840    -0.2620     1.0560 ca         1 26U      -0.111500
     26 H15         -4.2760    -0.1310     1.1110 hc         1 26U       0.058700
     27 H15A        -4.8390     0.3870    -0.4020 hc         1 26U       0.058700
     28 H33         -4.1710    -1.8340    -1.4690 hc         1 26U       0.055200
     29 H33A        -3.4690    -2.3450     0.0610 hc         1 26U       0.055200
     30 H17         -5.7210    -2.2630     1.1410 hc         1 26U       0.043700
     31 H12         -4.8410    -4.4040     0.2440 hc         1 26U       0.032200
     32 H12A        -6.6070    -4.3350     0.1040 hc         1 26U       0.032200
     33 H12B        -5.5920    -4.0710    -1.3320 hc         1 26U       0.032200
     34 H49         -7.7880    -2.1580    -0.2890 hc         1 26U       0.032200
     35 H49A        -6.9230    -0.6180    -0.2490 hc         1 26U       0.032200
     36 H49B        -6.7910    -1.6720    -1.6750 hc         1 26U       0.032200
     37 H1          -0.8040     2.1580    -1.2200 h1         1 26U       0.073700
     38 H2          -0.7470     4.5270     0.1910 hc         1 26U       0.056700
     39 H2A         -2.0260     4.2480    -0.9900 hc         1 26U       0.056700
     40 H3          -2.1940     3.6420     2.0440 hc         1 26U       0.063700
     41 H3A         -3.2500     4.7270     1.1360 hc         1 26U       0.063700
     42 H4          -4.2520     2.8650    -0.1250 h1         1 26U       0.046700
     43 H4A         -4.0240     2.1370     1.4880 h1         1 26U       0.046700
     44 HN23         1.1630     2.9010    -0.5640 hn         1 26U       0.315500
     45 H24          3.0650     3.1250     0.8540 h1         1 26U       0.060200
     46 H24A         2.2730     2.1490     2.1010 h1         1 26U       0.060200
     47 H30          4.2910     2.0700    -1.0030 ha         1 26U       0.123500
     48 H29          5.4390     0.0710    -1.8620 ha         1 26U       0.127000
     49 HN46         5.2480    -4.3660    -1.3900 hn         1 26U       0.367400
     50 HN47         6.7960    -1.5090    -1.5030 hn         1 26U       0.459000
     51 HN4A         6.9730    -3.2070    -1.5970 hn         1 26U       0.459000
     52 H27          3.3100    -2.3730     1.0220 ha         1 26U       0.127000
     53 H26          2.1580    -0.3580     1.8610 ha         1 26U       0.123500
@<TRIPOS>BOND
     1     1     2 1   
     2     1     6 1   
     3     1    26 1   
     4     1    27 1   
     5     2     3 1   
     6     2    28 1   
     7     2    29 1   
     8     3     4 1   
     9     3     5 1   
    10     3    30 1   
    11     4    31 1   
    12     4    32 1   
    13     4    33 1   
    14     5    34 1   
    15     5    35 1   
    16     5    36 1   
    17     6     7 2   
    18     6     8 1   
    19     8     9 1   
    20     8    14 1   
    21     9    10 1   
    22     9    12 1   
    23     9    37 1   
    24    10    11 2   
    25    10    15 1   
    26    12    13 1   
    27    12    38 1   
    28    12    39 1   
    29    13    14 1   
    30    13    40 1   
    31    13    41 1   
    32    14    42 1   
    33    14    43 1   
    34    15    16 1   
    35    15    44 1   
    36    16    17 1   
    37    16    45 1   
    38    16    46 1   
    39    17    18 ar  
    40    17    25 ar  
    41    18    19 ar  
    42    18    47 1   
    43    19    20 ar  
    44    19    48 1   
    45    20    21 1   
    46    20    24 ar  
    47    21    22 2   
    48    21    23 1   
    49    22    49 1   
    50    23    50 1   
    51    23    51 1   
    52    24    25 ar  
    53    24    52 1   
    54    25    53 1   
@<TRIPOS>SUBSTRUCTURE
     1 26U         1 TEMP              0 ****  ****    0 ROOT
