@<TRIPOS>MOLECULE
26V
   56    58     1     0     0
SMALL
bcc


@<TRIPOS>ATOM
      1 C12         -4.7210     0.8700     0.2750 ca         1 26V      -0.123000
      2 C11         -5.9240     0.3980    -0.2470 ca         1 26V      -0.068300
      3 C16         -6.6910     1.2490    -1.2300 c6         1 26V      -0.030100
      4 C15         -7.7080     0.4510    -2.0340 c6         1 26V      -0.073400
      5 C14         -8.5540    -0.4020    -1.0990 c6         1 26V      -0.073400
      6 C13         -7.6830    -1.4280    -0.3860 c6         1 26V      -0.030100
      7 C10         -6.4050    -0.8470     0.1680 ca         1 26V      -0.070300
      8 C9          -5.6610    -1.5730     1.0970 ca         1 26V      -0.128000
      9 C8          -4.4660    -1.0910     1.6050 ca         1 26V      -0.124000
     10 C7          -3.9750     0.1470     1.1970 ca         1 26V      -0.081300
     11 C6          -2.6530     0.6660     1.6930 c3         1 26V      -0.029100
     12 C5          -1.5350     0.4340     0.6760 c3         1 26V      -0.065400
     13 C4          -0.1960     0.9450     1.1850 c3         1 26V      -0.157400
     14 C2           0.9330     0.7610     0.1950 c          1 26V       0.678100
     15 O3           0.7540     0.7110    -1.0090 o          1 26V      -0.574100
     16 N1           2.1660     0.7020     0.7580 ns         1 26V      -0.578900
     17 C1           3.3730     0.5300     0.0210 c6         1 26V       0.278500
     18 O5           3.7220    -0.8360     0.0420 os         1 26V      -0.413600
     19 C18          4.8610    -1.1410    -0.7350 c6         1 26V       0.156100
     20 C17          5.0530    -2.6420    -0.7000 c3         1 26V       0.149400
     21 O6           3.9440    -3.2570    -1.3110 oh         1 26V      -0.583800
     22 C19          6.0780    -0.3990    -0.1810 c6         1 26V       0.119100
     23 O4           7.1790    -0.6760    -1.0100 oh         1 26V      -0.593800
     24 C3           5.7870     1.0970    -0.1330 c6         1 26V       0.116100
     25 O1           6.8980     1.7240     0.4610 oh         1 26V      -0.604800
     26 C20          4.5000     1.3670     0.6320 c6         1 26V       0.075100
     27 O2           4.2260     2.7410     0.5350 oh         1 26V      -0.593800
     28 H1          -4.3550     1.8390    -0.0550 ha         1 26V       0.126000
     29 H2          -7.2130     2.0390    -0.6800 hc         1 26V       0.047200
     30 H3          -5.9910     1.7620    -1.8940 hc         1 26V       0.047200
     31 H4          -8.3360     1.1310    -2.6120 hc         1 26V       0.042700
     32 H5          -7.1950    -0.1930    -2.7540 hc         1 26V       0.042700
     33 H6          -9.0460     0.2460    -0.3670 hc         1 26V       0.041200
     34 H7          -9.3480    -0.9130    -1.6480 hc         1 26V       0.041200
     35 H8          -8.2430    -1.9130     0.4170 hc         1 26V       0.047200
     36 H9          -7.4270    -2.2270    -1.0910 hc         1 26V       0.047200
     37 H10         -6.0280    -2.5380     1.4280 ha         1 26V       0.127000
     38 H11         -3.9100    -1.6810     2.3250 ha         1 26V       0.127000
     39 H12         -2.7290     1.7360     1.9040 hc         1 26V       0.042700
     40 H13         -2.3940     0.1800     2.6370 hc         1 26V       0.042700
     41 H14         -1.4640    -0.6340     0.4550 hc         1 26V       0.062200
     42 H15         -1.7940     0.9300    -0.2620 hc         1 26V       0.062200
     43 H16         -0.2650     2.0160     1.4050 hc         1 26V       0.054700
     44 H17          0.0580     0.4630     2.1330 hc         1 26V       0.054700
     45 H18          2.2270     0.6620     1.7650 hn         1 26V       0.308500
     46 H19          3.1990     0.8640    -1.0100 h2         1 26V       0.088700
     47 H20          4.7040    -0.8210    -1.7790 h1         1 26V       0.067700
     48 H21          5.9860    -2.8870    -1.2170 h1         1 26V       0.034200
     49 H22          5.1700    -2.9590     0.3460 h1         1 26V       0.034200
     50 H23          4.0990    -4.2050    -1.3200 ho         1 26V       0.404000
     51 H24          6.2590    -0.7510     0.8480 h1         1 26V       0.051700
     52 H25          7.9350    -0.1820    -0.6780 ho         1 26V       0.426000
     53 H26          5.6470     1.4460    -1.1690 h1         1 26V       0.058700
     54 H27          6.8210     2.6750     0.3330 ho         1 26V       0.427000
     55 H28          4.6380     1.0550     1.6790 h1         1 26V       0.049700
     56 H29          3.5210     2.9620     1.1510 ho         1 26V       0.415000
@<TRIPOS>BOND
     1     1     2 ar  
     2     1    10 ar  
     3     1    28 1   
     4     2     3 1   
     5     2     7 ar  
     6     3     4 1   
     7     3    29 1   
     8     3    30 1   
     9     4     5 1   
    10     4    31 1   
    11     4    32 1   
    12     5     6 1   
    13     5    33 1   
    14     5    34 1   
    15     6     7 1   
    16     6    35 1   
    17     6    36 1   
    18     7     8 ar  
    19     8     9 ar  
    20     8    37 1   
    21     9    10 ar  
    22     9    38 1   
    23    10    11 1   
    24    11    12 1   
    25    11    39 1   
    26    11    40 1   
    27    12    13 1   
    28    12    41 1   
    29    12    42 1   
    30    13    14 1   
    31    13    43 1   
    32    13    44 1   
    33    14    15 2   
    34    14    16 1   
    35    16    17 1   
    36    16    45 1   
    37    17    18 1   
    38    17    26 1   
    39    17    46 1   
    40    18    19 1   
    41    19    20 1   
    42    19    22 1   
    43    19    47 1   
    44    20    21 1   
    45    20    48 1   
    46    20    49 1   
    47    21    50 1   
    48    22    23 1   
    49    22    24 1   
    50    22    51 1   
    51    23    52 1   
    52    24    25 1   
    53    24    26 1   
    54    24    53 1   
    55    25    54 1   
    56    26    27 1   
    57    26    55 1   
    58    27    56 1   
@<TRIPOS>SUBSTRUCTURE
     1 26V         1 TEMP              0 ****  ****    0 ROOT
