@<TRIPOS>MOLECULE
26V
   56    58     1     0     0
SMALL
No Charge or Current Charge


@<TRIPOS>ATOM
      1 C12         -4.7320     0.9720     0.4800 ca         1 26V      -0.105000
      2 C11         -5.8710     0.4760    -0.1830 ca         1 26V      -0.068300
      3 C16         -6.7960     1.4630    -0.9080 c6         1 26V      -0.030100
      4 C15         -7.7700     0.7830    -1.8960 c6         1 26V      -0.073400
      5 C14         -8.4360    -0.4430    -1.2420 c6         1 26V      -0.073400
      6 C13         -7.3740    -1.5000    -0.8640 c6         1 26V      -0.030100
      7 C10         -6.1520    -0.9110    -0.1480 ca         1 26V      -0.070300
      8 C9          -5.2780    -1.7770     0.5350 ca         1 26V      -0.110000
      9 C8          -4.1420    -1.2750     1.1900 ca         1 26V      -0.106000
     10 C7          -3.8640     0.1040     1.1680 ca         1 26V      -0.081300
     11 C6          -2.6310     0.6510     1.8730 c3         1 26V      -0.029100
     12 C5          -1.4180     0.7470     0.9250 c3         1 26V      -0.065400
     13 C4          -0.1480     1.3010     1.6150 c3         1 26V      -0.157400
     14 C2           1.0290     1.3810     0.6400 c          1 26V       0.611100
     15 O3           1.1190     2.2390    -0.2260 o          1 26V      -0.574100
     16 N1           2.0280     0.4670     0.8380 ns         1 26V      -0.511900
     17 C1           3.1710     0.2730    -0.0420 c6         1 26V       0.301700
     18 O5           3.6930    -1.0200     0.3080 os         1 26V      -0.460000
     19 C18          4.8350    -1.4450    -0.4870 c6         1 26V       0.179300
     20 C17          5.2110    -2.9060    -0.0690 c3         1 26V       0.172600
     21 O6           4.1180    -3.8390    -0.1970 oh         1 26V      -0.706000
     22 C19          6.0170    -0.4450    -0.2850 c6         1 26V       0.142300
     23 O4           7.1660    -0.7840    -1.0840 oh         1 26V      -0.716000
     24 C3           5.5360     0.9900    -0.6450 c6         1 26V       0.139300
     25 O1           6.5790     1.9530    -0.4170 oh         1 26V      -0.667000
     26 C20          4.2720     1.3670     0.1800 c6         1 26V       0.098300
     27 O2           3.8190     2.6900    -0.1960 oh         1 26V      -0.716000
     28 H1          -4.5200     2.0380     0.4600 ha         1 26V       0.108000
     29 H2          -7.3750     2.0170    -0.1560 hc         1 26V       0.047200
     30 H3          -6.1990     2.2130    -1.4450 hc         1 26V       0.047200
     31 H4          -8.5340     1.5020    -2.2220 hc         1 26V       0.042700
     32 H5          -7.2260     0.4710    -2.7990 hc         1 26V       0.042700
     33 H6          -8.9850    -0.1300    -0.3430 hc         1 26V       0.041200
     34 H7          -9.1760    -0.8840    -1.9250 hc         1 26V       0.041200
     35 H8          -7.8400    -2.2740    -0.2380 hc         1 26V       0.047200
     36 H9          -7.0340    -2.0100    -1.7760 hc         1 26V       0.047200
     37 H10         -5.4800    -2.8460     0.5580 ha         1 26V       0.109000
     38 H11         -3.4770    -1.9580     1.7120 ha         1 26V       0.109000
     39 H12         -2.8450     1.6450     2.2870 hc         1 26V       0.042700
     40 H13         -2.3710     0.0140     2.7280 hc         1 26V       0.042700
     41 H14         -1.2030    -0.2490     0.5160 hc         1 26V       0.062200
     42 H15         -1.6780     1.3900     0.0740 hc         1 26V       0.062200
     43 H16         -0.3650     2.3090     1.9850 hc         1 26V       0.054700
     44 H17          0.1060     0.6420     2.4540 hc         1 26V       0.054700
     45 H18          1.8980    -0.2040     1.5830 hn         1 26V       0.308500
     46 H19          2.8350     0.2720    -1.0920 h2         1 26V       0.088700
     47 H20          4.5440    -1.4590    -1.5480 h1         1 26V       0.067700
     48 H21          6.0550    -3.2340    -0.6900 h1         1 26V       0.034200
     49 H22          5.5650    -2.8810     0.9710 h1         1 26V       0.034200
     50 H23          4.4370    -4.7040     0.1520 ho         1 26V       0.503000
     51 H24          6.2920    -0.4570     0.7810 h1         1 26V       0.051700
     52 H25          7.7030     0.0450    -1.1170 ho         1 26V       0.525000
     53 H26          5.2550     0.9980    -1.7090 h1         1 26V       0.058700
     54 H27          6.1050     2.8140    -0.3350 ho         1 26V       0.466000
     55 H28          4.5390     1.3580     1.2480 h1         1 26V       0.049700
     56 H29          2.8230     2.6530    -0.2250 ho         1 26V       0.514000
@<TRIPOS>BOND
     1     1     2 ar  
     2     1    10 ar  
     3     1    28 1   
     4     2     3 1   
     5     2     7 ar  
     6     3     4 1   
     7     3    29 1   
     8     3    30 1   
     9     4     5 1   
    10     4    31 1   
    11     4    32 1   
    12     5     6 1   
    13     5    33 1   
    14     5    34 1   
    15     6     7 1   
    16     6    35 1   
    17     6    36 1   
    18     7     8 ar  
    19     8     9 ar  
    20     8    37 1   
    21     9    10 ar  
    22     9    38 1   
    23    10    11 1   
    24    11    12 1   
    25    11    39 1   
    26    11    40 1   
    27    12    13 1   
    28    12    41 1   
    29    12    42 1   
    30    13    14 1   
    31    13    43 1   
    32    13    44 1   
    33    14    15 2   
    34    14    16 1   
    35    16    17 1   
    36    16    45 1   
    37    17    18 1   
    38    17    26 1   
    39    17    46 1   
    40    18    19 1   
    41    19    20 1   
    42    19    22 1   
    43    19    47 1   
    44    20    21 1   
    45    20    48 1   
    46    20    49 1   
    47    21    50 1   
    48    22    23 1   
    49    22    24 1   
    50    22    51 1   
    51    23    52 1   
    52    24    25 1   
    53    24    26 1   
    54    24    53 1   
    55    25    54 1   
    56    26    27 1   
    57    26    55 1   
    58    27    56 1   
@<TRIPOS>SUBSTRUCTURE
     1 26V         1 TEMP              0 ****  ****    0 ROOT
