@<TRIPOS>MOLECULE
26W
   52    53     1     0     0
SMALL
abcg2


@<TRIPOS>ATOM
      1 C14         -8.1250     1.4810     1.0080 c3         1 26W      -0.086100
      2 C13         -7.8160     0.0170     0.6990 c3         1 26W      -0.032100
      3 C10         -6.3750    -0.1890     0.3230 ca         1 26W      -0.076300
      4 C11         -5.3930    -0.3240     1.3030 ca         1 26W      -0.108000
      5 C12         -4.0560    -0.4690     0.9640 ca         1 26W      -0.103500
      6 C9          -5.9710    -0.2050    -1.0080 ca         1 26W      -0.108000
      7 C8          -4.6310    -0.3520    -1.3470 ca         1 26W      -0.103500
      8 C7          -3.6510    -0.4860    -0.3700 ca         1 26W      -0.084300
      9 C5          -2.1960    -0.6220    -0.7520 c3         1 26W      -0.005400
     10 C6          -1.5370    -1.8360    -0.1000 c3         1 26W      -0.093100
     11 C4          -1.4430     0.6750    -0.4140 c3         1 26W      -0.155400
     12 C2          -0.0240     0.6320    -0.9300 c          1 26W       0.610100
     13 O3           0.2230     0.4660    -2.1130 o          1 26W      -0.582100
     14 N1           0.9390     0.7910     0.0090 ns         1 26W      -0.505900
     15 C1           2.3330     0.6440    -0.2560 c6         1 26W       0.297700
     16 O5           2.7160    -0.6600     0.1140 os         1 26W      -0.462000
     17 C15          4.0610    -0.9610    -0.1940 c6         1 26W       0.178300
     18 C16          4.3020    -2.4130     0.1650 c3         1 26W       0.171600
     19 O6           3.4730    -3.2230    -0.6330 oh         1 26W      -0.707000
     20 C17          4.9910    -0.0240     0.5780 c6         1 26W       0.142300
     21 O4           6.3140    -0.3120     0.2010 oh         1 26W      -0.716000
     22 C3           4.6300     1.4240     0.2690 c6         1 26W       0.139300
     23 O1           5.4530     2.2430     1.0640 oh         1 26W      -0.667000
     24 C18          3.1500     1.6710     0.5300 c6         1 26W       0.100300
     25 O2           2.8550     2.9820     0.1230 oh         1 26W      -0.715000
     26 H1          -9.1720     1.6090     1.2840 hc         1 26W       0.034367
     27 H2          -7.5150     1.8450     1.8360 hc         1 26W       0.034367
     28 H3          -7.9260     2.1160     0.1440 hc         1 26W       0.034367
     29 H4          -8.0640    -0.5940     1.5700 hc         1 26W       0.045700
     30 H5          -8.4610    -0.3250    -0.1140 hc         1 26W       0.045700
     31 H6          -5.6770    -0.3170     2.3490 ha         1 26W       0.111000
     32 H7          -3.3240    -0.5720     1.7560 ha         1 26W       0.111500
     33 H8          -6.7110    -0.1070    -1.7930 ha         1 26W       0.111000
     34 H9          -4.3460    -0.3650    -2.3940 ha         1 26W       0.111500
     35 H10         -2.1520    -0.7520    -1.8370 hc         1 26W       0.073700
     36 H11         -1.4910    -1.7370     0.9860 hc         1 26W       0.041700
     37 H12         -2.0920    -2.7460    -0.3290 hc         1 26W       0.041700
     38 H13         -0.5160    -1.9780    -0.4580 hc         1 26W       0.041700
     39 H14         -1.9450     1.5220    -0.8890 hc         1 26W       0.061200
     40 H15         -1.4730     0.8530     0.6640 hc         1 26W       0.061200
     41 H16          0.6520     0.8410     0.9760 hn         1 26W       0.310500
     42 H17          2.4930     0.8050    -1.3290 h2         1 26W       0.090700
     43 H18          4.2410    -0.8220    -1.2730 h1         1 26W       0.066700
     44 H19          5.3620    -2.6360     0.0060 h1         1 26W       0.035200
     45 H20          4.0990    -2.5490     1.2370 h1         1 26W       0.035200
     46 H21          3.6960    -4.1410    -0.4530 ho         1 26W       0.503000
     47 H22          4.8400    -0.1970     1.6560 h1         1 26W       0.051700
     48 H23          6.8960     0.3050     0.6580 ho         1 26W       0.525000
     49 H24          4.8210     1.6000    -0.8020 h1         1 26W       0.058700
     50 H25          5.3740     3.1510     0.7570 ho         1 26W       0.466000
     51 H26          2.9520     1.5290     1.6040 h1         1 26W       0.049700
     52 H27          1.9760     3.2160     0.4400 ho         1 26W       0.516000
@<TRIPOS>BOND
     1     1     2 1   
     2     1    26 1   
     3     1    27 1   
     4     1    28 1   
     5     2     3 1   
     6     2    29 1   
     7     2    30 1   
     8     3     4 ar  
     9     3     6 ar  
    10     4     5 ar  
    11     4    31 1   
    12     5     8 ar  
    13     5    32 1   
    14     6     7 ar  
    15     6    33 1   
    16     7     8 ar  
    17     7    34 1   
    18     8     9 1   
    19     9    10 1   
    20     9    11 1   
    21     9    35 1   
    22    10    36 1   
    23    10    37 1   
    24    10    38 1   
    25    11    12 1   
    26    11    39 1   
    27    11    40 1   
    28    12    13 2   
    29    12    14 1   
    30    14    15 1   
    31    14    41 1   
    32    15    16 1   
    33    15    24 1   
    34    15    42 1   
    35    16    17 1   
    36    17    18 1   
    37    17    20 1   
    38    17    43 1   
    39    18    19 1   
    40    18    44 1   
    41    18    45 1   
    42    19    46 1   
    43    20    21 1   
    44    20    22 1   
    45    20    47 1   
    46    21    48 1   
    47    22    23 1   
    48    22    24 1   
    49    22    49 1   
    50    23    50 1   
    51    24    25 1   
    52    24    51 1   
    53    25    52 1   
@<TRIPOS>SUBSTRUCTURE
     1 26W         1 TEMP              0 ****  ****    0 ROOT
