@<TRIPOS>MOLECULE
26W
   52    53     1     0     0
SMALL
No Charge or Current Charge


@<TRIPOS>ATOM
      1 C14         -8.3960     1.2750     0.4420 c3         1 26W      -0.086100
      2 C13         -7.8230    -0.1050     0.8140 c3         1 26W      -0.032100
      3 C10         -6.3420    -0.2220     0.4790 ca         1 26W      -0.076300
      4 C11         -5.3680     0.1490     1.4230 ca         1 26W      -0.108000
      5 C12         -4.0010     0.0450     1.1120 ca         1 26W      -0.103500
      6 C9          -5.9340    -0.6940    -0.7820 ca         1 26W      -0.108000
      7 C8          -4.5670    -0.7980    -1.0940 ca         1 26W      -0.103500
      8 C7          -3.5880    -0.4310    -0.1500 ca         1 26W      -0.084300
      9 C5          -2.1020    -0.5450    -0.5000 c3         1 26W      -0.005400
     10 C6          -1.3760    -1.5210     0.4560 c3         1 26W      -0.093100
     11 C4          -1.4340     0.8550    -0.5410 c3         1 26W      -0.155400
     12 C2           0.0040     0.7960    -1.0670 c          1 26W       0.610100
     13 O3           0.2650     0.6090    -2.2470 o          1 26W      -0.582100
     14 N1           0.9780     1.0190    -0.1270 ns         1 26W      -0.505900
     15 C1           2.4070     0.8520    -0.3620 c6         1 26W       0.297700
     16 O5           2.6620    -0.5610    -0.2440 os         1 26W      -0.462000
     17 C15          4.0400    -0.9470    -0.5030 c6         1 26W       0.178300
     18 C16          4.1350    -2.5090    -0.4500 c3         1 26W       0.171600
     19 O6           3.2400    -3.1720    -1.3680 oh         1 26W      -0.707000
     20 C17          4.9830    -0.2590     0.5340 c6         1 26W       0.142300
     21 O4           6.3720    -0.5580     0.2950 oh         1 26W      -0.716000
     22 C3           4.7620     1.2800     0.4820 c6         1 26W       0.139300
     23 O1           5.5700     1.9470     1.4670 oh         1 26W      -0.667000
     24 C18          3.2610     1.6220     0.7010 c6         1 26W       0.100300
     25 O2           3.0730     3.0560     0.6290 oh         1 26W      -0.715000
     26 H1          -9.4620     1.3290     0.6950 hc         1 26W       0.034367
     27 H2          -7.8720     2.0700     0.9860 hc         1 26W       0.034367
     28 H3          -8.2870     1.4610    -0.6330 hc         1 26W       0.034367
     29 H4          -7.9840    -0.2810     1.8850 hc         1 26W       0.045700
     30 H5          -8.3940    -0.8810     0.2890 hc         1 26W       0.045700
     31 H6          -5.6690     0.5200     2.4000 ha         1 26W       0.111000
     32 H7          -3.2640     0.3380     1.8560 ha         1 26W       0.111500
     33 H8          -6.6760    -0.9800    -1.5240 ha         1 26W       0.111000
     34 H9          -4.2730    -1.1650    -2.0750 ha         1 26W       0.111500
     35 H10         -2.0140    -0.9720    -1.5070 hc         1 26W       0.073700
     36 H11         -1.3400    -1.1250     1.4780 hc         1 26W       0.041700
     37 H12         -1.8950    -2.4870     0.4820 hc         1 26W       0.041700
     38 H13         -0.3470    -1.7050     0.1250 hc         1 26W       0.041700
     39 H14         -2.0180     1.4910    -1.2170 hc         1 26W       0.061200
     40 H15         -1.4470     1.2860     0.4670 hc         1 26W       0.061200
     41 H16          0.6650     1.1340     0.8280 hn         1 26W       0.310500
     42 H17          2.6590     1.2010    -1.3760 h2         1 26W       0.090700
     43 H18          4.3140    -0.6230    -1.5180 h1         1 26W       0.066700
     44 H19          5.1720    -2.7970    -0.6700 h1         1 26W       0.035200
     45 H20          3.9220    -2.8270     0.5790 h1         1 26W       0.035200
     46 H21          3.3320    -4.1400    -1.2100 ho         1 26W       0.503000
     47 H22          4.6980    -0.6130     1.5370 h1         1 26W       0.051700
     48 H23          6.8680     0.1420     0.7860 ho         1 26W       0.525000
     49 H24          5.0430     1.6320    -0.5230 h1         1 26W       0.058700
     50 H25          5.1390     2.8260     1.5840 ho         1 26W       0.466000
     51 H26          2.9670     1.2590     1.6980 h1         1 26W       0.049700
     52 H27          2.1020     3.2300     0.6590 ho         1 26W       0.516000
@<TRIPOS>BOND
     1     1     2 1   
     2     1    26 1   
     3     1    27 1   
     4     1    28 1   
     5     2     3 1   
     6     2    29 1   
     7     2    30 1   
     8     3     4 ar  
     9     3     6 ar  
    10     4     5 ar  
    11     4    31 1   
    12     5     8 ar  
    13     5    32 1   
    14     6     7 ar  
    15     6    33 1   
    16     7     8 ar  
    17     7    34 1   
    18     8     9 1   
    19     9    10 1   
    20     9    11 1   
    21     9    35 1   
    22    10    36 1   
    23    10    37 1   
    24    10    38 1   
    25    11    12 1   
    26    11    39 1   
    27    11    40 1   
    28    12    13 2   
    29    12    14 1   
    30    14    15 1   
    31    14    41 1   
    32    15    16 1   
    33    15    24 1   
    34    15    42 1   
    35    16    17 1   
    36    17    18 1   
    37    17    20 1   
    38    17    43 1   
    39    18    19 1   
    40    18    44 1   
    41    18    45 1   
    42    19    46 1   
    43    20    21 1   
    44    20    22 1   
    45    20    47 1   
    46    21    48 1   
    47    22    23 1   
    48    22    24 1   
    49    22    49 1   
    50    23    50 1   
    51    24    25 1   
    52    24    51 1   
    53    25    52 1   
@<TRIPOS>SUBSTRUCTURE
     1 26W         1 TEMP              0 ****  ****    0 ROOT
