@<TRIPOS>MOLECULE
26X
   63    68     1     0     0
SMALL
abcg2


@<TRIPOS>ATOM
      1 C1         181.1170   -12.4570    11.1910 c3         1 26X      -0.152400
      2 C2         181.3990   -10.9760    11.3200 c          1 26X       0.618100
      3 C3         180.2570    -8.8150    11.9720 cy         1 26X       0.092000
      4 N6         179.1570    -8.4830    20.0010 nb         1 26X      -0.667000
      5 C7         178.2280    -8.3370    15.8380 cc         1 26X      -0.153000
      6 C8         177.0550    -7.9120    15.1640 cc         1 26X       0.333500
      7 C9         175.8350    -7.3030    15.7070 ca         1 26X      -0.100500
      8 C10        175.8970    -6.3280    16.7020 ca         1 26X      -0.120000
      9 C11        174.7240    -5.7650    17.1750 ca         1 26X      -0.091000
     10 C12        173.4830    -6.1450    16.6820 ca         1 26X      -0.130000
     11 C13        173.4140    -7.1160    15.6810 ca         1 26X      -0.016000
     12 C14        174.5980    -7.6840    15.2050 ca         1 26X      -0.142000
     13 C15        170.9460    -7.2220    15.3710 c          1 26X       0.552600
     14 C16        169.9700    -7.9510    14.5490 cc         1 26X       0.156500
     15 C19        166.7580    -8.9480    13.3620 cx         1 26X      -0.008700
     16 C20        165.8820    -7.8190    12.9300 cx         1 26X      -0.123900
     17 C21        166.2930    -8.8690    11.9450 cx         1 26X      -0.123900
     18 C22        178.5330    -8.3680    17.2670 ca         1 26X       0.045000
     19 C24        180.0770    -8.1780    19.0930 ca         1 26X       0.332900
     20 O1         170.5970    -6.3920    16.1960 o          1 26X      -0.596100
     21 N5         170.3270    -8.8830    13.6140 nc         1 26X      -0.674000
     22 C18        169.2060    -9.3020    13.0970 cd         1 26X       0.403400
     23 N4         168.1350    -8.6780    13.6500 na         1 26X      -0.142500
     24 C17        168.6090    -7.8130    14.5840 cd         1 26X      -0.134000
     25 N3         172.2300    -7.5770    15.1090 ns         1 26X      -0.134000
     26 C26        177.5710    -8.6970    18.2210 ca         1 26X      -0.159000
     27 C25        177.9310    -8.7370    19.5570 ca         1 26X       0.332900
     28 C23        179.8200    -8.1030    17.7330 ca         1 26X      -0.159000
     29 C6         179.0480    -8.7940    14.8280 cd         1 26X      -0.150000
     30 N2         177.1720    -8.1050    13.8630 nd         1 26X      -0.515800
     31 N1         178.3760    -8.6350    13.6760 na         1 26X       0.140800
     32 C4         178.7770    -9.0370    12.3550 cy         1 26X       0.053300
     33 C5         178.9950   -10.5520    12.1270 cy         1 26X       0.092000
     34 N          180.3610   -10.2420    11.7410 nj         1 26X      -0.443800
     35 O          182.4770   -10.4620    11.0600 o          1 26X      -0.591100
     36 C          182.3550   -13.2860    10.8990 c3         1 26X      -0.077100
     37 H1         180.6320   -12.8080    12.1070 hc         1 26X       0.056200
     38 H2         180.3720   -12.5950    10.4000 hc         1 26X       0.056200
     39 H3         180.8990    -8.4410    12.7720 h1         1 26X       0.067950
     40 H4         180.4060    -8.1980    11.0840 h1         1 26X       0.067950
     41 H5         176.8520    -6.0030    17.0930 ha         1 26X       0.122000
     42 H6         174.7690    -5.0060    17.9450 ha         1 26X       0.116000
     43 H7         172.5910    -5.6870    17.0750 ha         1 26X       0.147000
     44 H8         174.5500    -8.4470    14.4350 ha         1 26X       0.122000
     45 H9         166.3250    -9.7110    13.9970 h1         1 26X       0.103700
     46 H10        166.3320    -6.8390    12.8360 hc         1 26X       0.087200
     47 H11        164.8650    -7.8170    13.2980 hc         1 26X       0.087200
     48 H12        167.0180    -8.5910    11.1910 hc         1 26X       0.087200
     49 H13        165.5650    -9.6000    11.6240 hc         1 26X       0.087200
     50 H14        181.0750    -7.9730    19.4630 h4         1 26X       0.018100
     51 H15        169.0990   -10.0450    12.3220 h5         1 26X       0.061100
     52 H16        167.9590    -7.1890    15.1740 h4         1 26X       0.177000
     53 H17        172.3330    -8.2830    14.3920 hn         1 26X       0.178000
     54 H18        176.5560    -8.9360    17.9320 ha         1 26X       0.126500
     55 H19        177.1880    -8.9940    20.3050 h4         1 26X       0.018100
     56 H20        180.6140    -7.8310    17.0500 ha         1 26X       0.126500
     57 H21        180.0290    -9.2420    14.8710 h4         1 26X       0.163000
     58 H22        178.0710    -8.5880    11.6620 h1         1 26X       0.109700
     59 H23        178.3840   -10.9870    11.3350 h1         1 26X       0.067950
     60 H24        178.9090   -11.1660    13.0260 h1         1 26X       0.067950
     61 H25        182.0880   -14.3390    10.8210 hc         1 26X       0.043367
     62 H26        182.8240   -12.9920     9.9620 hc         1 26X       0.043367
     63 H27        183.0970   -13.1890    11.6910 hc         1 26X       0.043367
@<TRIPOS>BOND
     1     1     2 1   
     2     1    36 1   
     3     1    37 1   
     4     1    38 1   
     5     2    34 1   
     6     2    35 2   
     7     3    32 1   
     8     3    34 1   
     9     3    39 1   
    10     3    40 1   
    11     4    19 ar  
    12     4    27 ar  
    13     5     6 1   
    14     5    18 1   
    15     5    29 2   
    16     6     7 1   
    17     6    30 2   
    18     7     8 ar  
    19     7    12 ar  
    20     8     9 ar  
    21     8    41 1   
    22     9    10 ar  
    23     9    42 1   
    24    10    11 ar  
    25    10    43 1   
    26    11    12 ar  
    27    11    25 1   
    28    12    44 1   
    29    13    14 1   
    30    13    20 2   
    31    13    25 1   
    32    14    21 1   
    33    14    24 2   
    34    15    16 1   
    35    15    17 1   
    36    15    23 1   
    37    15    45 1   
    38    16    17 1   
    39    16    46 1   
    40    16    47 1   
    41    17    48 1   
    42    17    49 1   
    43    18    26 ar  
    44    18    28 ar  
    45    19    28 ar  
    46    19    50 1   
    47    21    22 2   
    48    22    23 1   
    49    22    51 1   
    50    23    24 1   
    51    24    52 1   
    52    25    53 1   
    53    26    27 ar  
    54    26    54 1   
    55    27    55 1   
    56    28    56 1   
    57    29    31 1   
    58    29    57 1   
    59    30    31 1   
    60    31    32 1   
    61    32    33 1   
    62    32    58 1   
    63    33    34 1   
    64    33    59 1   
    65    33    60 1   
    66    36    61 1   
    67    36    62 1   
    68    36    63 1   
@<TRIPOS>SUBSTRUCTURE
     1 26X         1 TEMP              0 ****  ****    0 ROOT
