@<TRIPOS>MOLECULE
26X
   63    68     1     0     0
SMALL
No Charge or Current Charge


@<TRIPOS>ATOM
      1 C1         182.1400   -12.3460    11.0370 c3         1 26X      -0.152400
      2 C2         181.2930   -11.6370    12.1020 c          1 26X       0.618100
      3 C3         179.8170    -9.9350    11.9350 cy         1 26X       0.092000
      4 N6         179.5840    -7.8720    19.8730 nb         1 26X      -0.667000
      5 C7         178.1710    -8.5880    15.8640 cc         1 26X      -0.153000
      6 C8         176.8930    -8.4940    15.2510 cc         1 26X       0.333500
      7 C9         175.7370    -7.7030    15.7220 ca         1 26X      -0.100500
      8 C10        175.9040    -6.5870    16.5710 ca         1 26X      -0.120000
      9 C11        174.8010    -5.8140    16.9660 ca         1 26X      -0.091000
     10 C12        173.5140    -6.1230    16.4990 ca         1 26X      -0.130000
     11 C13        173.3250    -7.2030    15.6130 ca         1 26X      -0.016000
     12 C14        174.4400    -7.9700    15.2230 ca         1 26X      -0.142000
     13 C15        170.7790    -7.0550    15.2480 c          1 26X       0.552600
     14 C16        169.7600    -7.8070    14.4410 cc         1 26X       0.156500
     15 C19        166.4320    -8.4730    13.2940 cx         1 26X      -0.008700
     16 C20        165.5580    -7.3080    12.8920 cx         1 26X      -0.123900
     17 C21        165.8350    -8.4160    11.9070 cx         1 26X      -0.123900
     18 C22        178.6440    -8.3220    17.2300 ca         1 26X       0.045000
     19 C24        180.4320    -7.8890    18.8200 ca         1 26X       0.332900
     20 O1         170.5060    -6.1000    15.9730 o          1 26X      -0.596100
     21 N5         170.0030    -8.8910    13.6080 nc         1 26X      -0.674000
     22 C18        168.8250    -9.2420    13.0980 cd         1 26X       0.403400
     23 N4         167.8630    -8.3880    13.5990 na         1 26X      -0.142500
     24 C17        168.4260    -7.4740    14.4580 cd         1 26X      -0.134000
     25 N3         172.0590    -7.5680    15.0760 ns         1 26X      -0.134000
     26 C26        177.7690    -8.3230    18.3330 ca         1 26X      -0.159000
     27 C25        178.2740    -8.0910    19.6220 ca         1 26X       0.332900
     28 C23        180.0100    -8.1160    17.5000 ca         1 26X      -0.159000
     29 C6         178.9640    -9.2990    15.0130 cd         1 26X      -0.150000
     30 N2         176.8680    -9.0780    14.0640 nd         1 26X      -0.515800
     31 N1         178.1510    -9.5770    13.9140 na         1 26X       0.140800
     32 C4         178.5230   -10.3170    12.7210 cy         1 26X       0.053300
     33 C5         179.1420   -11.7440    12.8470 cy         1 26X       0.092000
     34 N          179.9600   -11.4010    11.6320 nj         1 26X      -0.443800
     35 O          181.8510   -11.3710    13.1640 o          1 26X      -0.591100
     36 C          182.9540   -11.3350    10.1990 c3         1 26X      -0.077100
     37 H1         182.8350   -13.0420    11.5210 hc         1 26X       0.056200
     38 H2         181.4840   -12.8840    10.3430 hc         1 26X       0.056200
     39 H3         180.5900    -9.4590    12.5510 h1         1 26X       0.067950
     40 H4         179.6270    -9.3270    11.0430 h1         1 26X       0.067950
     41 H5         176.8930    -6.2900    16.9070 ha         1 26X       0.122000
     42 H6         174.9470    -4.9620    17.6270 ha         1 26X       0.116000
     43 H7         172.6860    -5.5020    16.8250 ha         1 26X       0.147000
     44 H8         174.2900    -8.8000    14.5350 ha         1 26X       0.122000
     45 H9         166.0080    -9.1970    13.9910 h1         1 26X       0.103700
     46 H10        166.0380    -6.3470    12.7200 hc         1 26X       0.087200
     47 H11        164.5640    -7.2490    13.3280 hc         1 26X       0.087200
     48 H12        166.4990    -8.1980    11.0740 hc         1 26X       0.087200
     49 H13        165.0260    -9.1070    11.6770 hc         1 26X       0.087200
     50 H14        181.4840    -7.7150    19.0430 h4         1 26X       0.018100
     51 H15        168.6080   -10.0490    12.4070 h5         1 26X       0.061100
     52 H16        167.8800    -6.7000    14.9870 h4         1 26X       0.177000
     53 H17        172.0910    -8.3570    14.4420 hn         1 26X       0.178000
     54 H18        176.7100    -8.5280    18.2110 ha         1 26X       0.126500
     55 H19        177.6080    -8.0900    20.4850 h4         1 26X       0.018100
     56 H20        180.7460    -8.1080    16.7020 ha         1 26X       0.126500
     57 H21        179.9800    -9.6650    15.1050 h4         1 26X       0.163000
     58 H22        177.6430   -10.3170    12.0690 h1         1 26X       0.109700
     59 H23        178.4240   -12.5520    12.6680 h1         1 26X       0.067950
     60 H24        179.6690   -11.9200    13.7930 h1         1 26X       0.067950
     61 H25        183.5470   -11.8560     9.4380 hc         1 26X       0.043367
     62 H26        182.2870   -10.6280     9.6890 hc         1 26X       0.043367
     63 H27        183.6390   -10.7640    10.8370 hc         1 26X       0.043367
@<TRIPOS>BOND
     1     1     2 1   
     2     1    36 1   
     3     1    37 1   
     4     1    38 1   
     5     2    34 1   
     6     2    35 2   
     7     3    32 1   
     8     3    34 1   
     9     3    39 1   
    10     3    40 1   
    11     4    19 ar  
    12     4    27 ar  
    13     5     6 1   
    14     5    18 1   
    15     5    29 2   
    16     6     7 1   
    17     6    30 2   
    18     7     8 ar  
    19     7    12 ar  
    20     8     9 ar  
    21     8    41 1   
    22     9    10 ar  
    23     9    42 1   
    24    10    11 ar  
    25    10    43 1   
    26    11    12 ar  
    27    11    25 1   
    28    12    44 1   
    29    13    14 1   
    30    13    20 2   
    31    13    25 1   
    32    14    21 1   
    33    14    24 2   
    34    15    16 1   
    35    15    17 1   
    36    15    23 1   
    37    15    45 1   
    38    16    17 1   
    39    16    46 1   
    40    16    47 1   
    41    17    48 1   
    42    17    49 1   
    43    18    26 ar  
    44    18    28 ar  
    45    19    28 ar  
    46    19    50 1   
    47    21    22 2   
    48    22    23 1   
    49    22    51 1   
    50    23    24 1   
    51    24    52 1   
    52    25    53 1   
    53    26    27 ar  
    54    26    54 1   
    55    27    55 1   
    56    28    56 1   
    57    29    31 1   
    58    29    57 1   
    59    30    31 1   
    60    31    32 1   
    61    32    33 1   
    62    32    58 1   
    63    33    34 1   
    64    33    59 1   
    65    33    60 1   
    66    36    61 1   
    67    36    62 1   
    68    36    63 1   
@<TRIPOS>SUBSTRUCTURE
     1 26X         1 TEMP              0 ****  ****    0 ROOT
