@<TRIPOS>MOLECULE
26Y
   50    51     1     0     0
SMALL
No Charge or Current Charge


@<TRIPOS>ATOM
      1 C14          8.5700     0.9180     0.2150 c3         1 26Y      -0.084600
      2 C13          7.7120     0.1420    -0.8080 c3         1 26Y      -0.019400
      3 C15          8.3060    -1.2510    -1.1120 c3         1 26Y      -0.084600
      4 C10          6.2530     0.0440    -0.3570 ca         1 26Y      -0.055300
      5 C9           5.9040    -0.6370     0.8260 ca         1 26Y      -0.113500
      6 C8           4.5610    -0.7220     1.2320 ca         1 26Y      -0.083500
      7 C11          5.2320     0.6370    -1.1250 ca         1 26Y      -0.113500
      8 C12          3.8890     0.5530    -0.7200 ca         1 26Y      -0.083500
      9 C7           3.5400    -0.1290     0.4650 ca         1 26Y      -0.083800
     10 C6           2.1220    -0.2370     0.9230 ce         1 26Y      -0.065200
     11 C4           0.9890     0.2600     0.3430 cf         1 26Y      -0.308200
     12 C2          -0.3730     0.0820     0.9040 c          1 26Y       0.616300
     13 O3          -0.5860    -0.5230     1.9430 o          1 26Y      -0.583100
     14 N1          -1.3740     0.6660     0.1750 ns         1 26Y      -0.505900
     15 C1          -2.7980     0.5060     0.4450 c6         1 26Y       0.303700
     16 O5          -3.1810    -0.7470    -0.1540 os         1 26Y      -0.458000
     17 C5          -4.5710    -1.1160     0.0610 c6         1 26Y       0.178300
     18 C16         -4.8070    -2.5400    -0.5440 c3         1 26Y       0.172600
     19 O6          -3.9230    -3.5470    -0.0060 oh         1 26Y      -0.706000
     20 C17         -5.5070    -0.0390    -0.5760 c6         1 26Y       0.143300
     21 O4          -6.9010    -0.3190    -0.3460 oh         1 26Y      -0.715000
     22 C3          -5.1500     1.3580     0.0100 c6         1 26Y       0.139300
     23 O1          -5.9480     2.3880    -0.5990 oh         1 26Y      -0.667000
     24 C18         -3.6390     1.6630    -0.1940 c6         1 26Y       0.097300
     25 O2          -3.3220     2.9570     0.3740 oh         1 26Y      -0.716000
     26 H1           8.6250     0.3850     1.1720 hc         1 26Y       0.036033
     27 H2           9.5930     1.0510    -0.1590 hc         1 26Y       0.036033
     28 H3           8.1440     1.9110     0.3990 hc         1 26Y       0.036033
     29 H4           7.7540     0.7110    -1.7460 hc         1 26Y       0.049700
     30 H5           8.3500    -1.8700    -0.2080 hc         1 26Y       0.036033
     31 H6           7.6950    -1.7750    -1.8570 hc         1 26Y       0.036033
     32 H7           9.3230    -1.1590    -1.5120 hc         1 26Y       0.036033
     33 H8           6.6730    -1.1040     1.4360 ha         1 26Y       0.114000
     34 H9           4.3180    -1.2540     2.1490 ha         1 26Y       0.114000
     35 H10          5.4770     1.1680    -2.0420 ha         1 26Y       0.114000
     36 H11          3.1280     1.0220    -1.3360 ha         1 26Y       0.114000
     37 H12          2.0060    -0.7960     1.8550 ha         1 26Y       0.198000
     38 H13          1.0590     0.8220    -0.5840 ha         1 26Y       0.175000
     39 H14         -1.1020     1.1060    -0.6930 hn         1 26Y       0.309500
     40 H15         -2.9660     0.4730     1.5340 h2         1 26Y       0.087700
     41 H16         -4.7610    -1.1700     1.1440 h1         1 26Y       0.066700
     42 H17         -5.8510    -2.8250    -0.3560 h1         1 26Y       0.034200
     43 H18         -4.6800    -2.4720    -1.6330 h1         1 26Y       0.034200
     44 H19         -4.1060    -4.3820    -0.4970 ho         1 26Y       0.502000
     45 H20         -5.3090    -0.0180    -1.6580 h1         1 26Y       0.051700
     46 H21         -7.3600     0.5410    -0.5090 ho         1 26Y       0.524000
     47 H22         -5.3440     1.3340     1.0930 h1         1 26Y       0.058700
     48 H23         -5.4460     3.2190    -0.4270 ho         1 26Y       0.465000
     49 H24         -3.4320     1.6720    -1.2750 h1         1 26Y       0.049700
     50 H25         -2.3420     3.0630     0.3410 ho         1 26Y       0.515000
@<TRIPOS>BOND
     1     1     2 1   
     2     1    26 1   
     3     1    27 1   
     4     1    28 1   
     5     2     3 1   
     6     2     4 1   
     7     2    29 1   
     8     3    30 1   
     9     3    31 1   
    10     3    32 1   
    11     4     5 ar  
    12     4     7 ar  
    13     5     6 ar  
    14     5    33 1   
    15     6     9 ar  
    16     6    34 1   
    17     7     8 ar  
    18     7    35 1   
    19     8     9 ar  
    20     8    36 1   
    21     9    10 1   
    22    10    11 2   
    23    10    37 1   
    24    11    12 1   
    25    11    38 1   
    26    12    13 2   
    27    12    14 1   
    28    14    15 1   
    29    14    39 1   
    30    15    16 1   
    31    15    24 1   
    32    15    40 1   
    33    16    17 1   
    34    17    18 1   
    35    17    20 1   
    36    17    41 1   
    37    18    19 1   
    38    18    42 1   
    39    18    43 1   
    40    19    44 1   
    41    20    21 1   
    42    20    22 1   
    43    20    45 1   
    44    21    46 1   
    45    22    23 1   
    46    22    24 1   
    47    22    47 1   
    48    23    48 1   
    49    24    25 1   
    50    24    49 1   
    51    25    50 1   
@<TRIPOS>SUBSTRUCTURE
     1 26Y         1 TEMP              0 ****  ****    0 ROOT
