@<TRIPOS>MOLECULE
26Z
   41    43     1     0     0
SMALL
No Charge or Current Charge


@<TRIPOS>ATOM
      1 N01          0.2010     1.2530    -0.0240 nc         1 26Z      -0.793000
      2 N02         -0.7410    -0.7930     0.4820 nu         1 26Z      -0.918900
      3 N03          1.3390     3.0750    -0.4290 nv         1 26Z      -1.047900
      4 N04          6.1240    -2.6990    -1.5300 nv         1 26Z      -1.075000
      5 N05         -7.0550    -1.3780    -1.0960 n8         1 26Z      -1.006100
      6 C06          2.5150     1.0000    -0.0700 cd         1 26Z      -0.461600
      7 C07          1.4160     1.7850    -0.1910 cc         1 26Z       0.689900
      8 C08          0.3470    -0.0290     0.2090 cd         1 26Z       0.754300
      9 C09         -2.1190    -0.6180     0.3550 ca         1 26Z       0.359000
     10 C10          3.9060     1.4960    -0.1130 c          1 26Z       0.644300
     11 C11          5.0290     0.4900    -0.0160 ca         1 26Z      -0.110600
     12 C12          6.1030     0.7230     0.8690 ca         1 26Z      -0.110000
     13 C13          7.1640    -0.1940     0.9590 ca         1 26Z      -0.078000
     14 C14          7.1650    -1.3480     0.1560 ca         1 26Z      -0.165000
     15 C15          6.1130    -1.5820    -0.7400 ca         1 26Z       0.286000
     16 C16          5.0530    -0.6670    -0.8300 ca         1 26Z      -0.158000
     17 C17         -2.6900     0.3130    -0.5300 ca         1 26Z      -0.176000
     18 C18         -4.0860     0.4380    -0.6380 ca         1 26Z       0.022500
     19 C19         -4.9260    -0.3820     0.1410 ca         1 26Z      -0.307500
     20 C20         -4.3600    -1.3270     1.0180 ca         1 26Z       0.022500
     21 C21         -2.9630    -1.4430     1.1150 ca         1 26Z      -0.176000
     22 O22          4.1590     2.6910    -0.2120 o          1 26Z      -0.586100
     23 O23         -7.0600     1.0190    -0.6490 o          1 26Z      -0.545500
     24 O24         -7.3480    -0.6890     1.2490 o          1 26Z      -0.545500
     25 S25          1.9980    -0.6460     0.2780 ss         1 26Z      -0.063400
     26 S26         -6.7070    -0.2320     0.0160 sy         1 26Z       1.132600
     27 HN02        -0.4690    -1.6700     0.9130 hn         1 26Z       0.510000
     28 HN03         0.4760     3.4980    -0.1150 hn         1 26Z       0.519000
     29 HN0A         2.1940     3.5940    -0.2590 hn         1 26Z       0.519000
     30 HN04         6.8180    -3.4270    -1.3700 hn         1 26Z       0.448500
     31 HN0B         5.3010    -2.9450    -2.0780 hn         1 26Z       0.448500
     32 HN05        -6.1660    -1.4900    -1.5770 hn         1 26Z       0.473000
     33 HN0C        -7.6210    -0.8440    -1.7510 hn         1 26Z       0.473000
     34 H12          6.1110     1.6150     1.4920 ha         1 26Z       0.128000
     35 H13          7.9850    -0.0100     1.6490 ha         1 26Z       0.113000
     36 H14          7.9890    -2.0520     0.2290 ha         1 26Z       0.112000
     37 H16          4.2520    -0.8450    -1.5420 ha         1 26Z       0.119000
     38 H17         -2.0620     0.9390    -1.1540 ha         1 26Z       0.137000
     39 H18         -4.5040     1.1700    -1.3280 ha         1 26Z       0.138000
     40 H20         -4.9950    -1.9740     1.6220 ha         1 26Z       0.138000
     41 H21         -2.5390    -2.1760     1.7950 ha         1 26Z       0.137000
@<TRIPOS>BOND
     1     1     7 1   
     2     1     8 2   
     3     2     8 1   
     4     2     9 1   
     5     2    27 1   
     6     3     7 1   
     7     3    28 1   
     8     3    29 1   
     9     4    15 1   
    10     4    30 1   
    11     4    31 1   
    12     5    26 1   
    13     5    32 1   
    14     5    33 1   
    15     6     7 2   
    16     6    10 1   
    17     6    25 1   
    18     8    25 1   
    19     9    17 ar  
    20     9    21 ar  
    21    10    11 1   
    22    10    22 2   
    23    11    12 ar  
    24    11    16 ar  
    25    12    13 ar  
    26    12    34 1   
    27    13    14 ar  
    28    13    35 1   
    29    14    15 ar  
    30    14    36 1   
    31    15    16 ar  
    32    16    37 1   
    33    17    18 ar  
    34    17    38 1   
    35    18    19 ar  
    36    18    39 1   
    37    19    20 ar  
    38    19    26 1   
    39    20    21 ar  
    40    20    40 1   
    41    21    41 1   
    42    23    26 2   
    43    24    26 2   
@<TRIPOS>SUBSTRUCTURE
     1 26Z         1 TEMP              0 ****  ****    0 ROOT
