@<TRIPOS>MOLECULE
26Z
   41    43     1     0     0
SMALL
abcg2


@<TRIPOS>ATOM
      1 N01          0.2140     1.2980    -0.1850 nc         1 26Z      -0.793000
      2 N02         -0.6530    -0.8000     0.4310 nu         1 26Z      -0.918900
      3 N03          1.4450     3.1810    -0.7140 nv         1 26Z      -1.047900
      4 N04          5.9910    -2.8240    -1.3040 nv         1 26Z      -1.075000
      5 N05         -6.8680    -1.2540    -1.2030 n8         1 26Z      -1.006100
      6 C06          2.5420     1.0830    -0.1670 cd         1 26Z      -0.461600
      7 C07          1.4190     1.8970    -0.3690 cc         1 26Z       0.689900
      8 C08          0.3570     0.0570     0.1740 cd         1 26Z       0.754300
      9 C09         -2.0240    -0.6010     0.3360 ca         1 26Z       0.359000
     10 C10          3.9010     1.4970    -0.2460 c          1 26Z       0.644300
     11 C11          4.9750     0.4810    -0.0340 ca         1 26Z      -0.110600
     12 C12          6.0230     0.7760     0.8350 ca         1 26Z      -0.110000
     13 C13          7.0240    -0.1660     1.0210 ca         1 26Z      -0.078000
     14 C14          7.0090    -1.3710     0.3390 ca         1 26Z      -0.165000
     15 C15          5.9770    -1.6660    -0.5610 ca         1 26Z       0.286000
     16 C16          4.9560    -0.7230    -0.7280 ca         1 26Z      -0.158000
     17 C17         -2.6220     0.5870    -0.0870 ca         1 26Z      -0.176000
     18 C18         -4.0030     0.6740    -0.1570 ca         1 26Z       0.022500
     19 C19         -4.7910    -0.4090     0.1910 ca         1 26Z      -0.307500
     20 C20         -4.2060    -1.5970     0.6210 ca         1 26Z       0.022500
     21 C21         -2.8340    -1.6880     0.6920 ca         1 26Z      -0.176000
     22 O22          4.2130     2.6720    -0.4620 o          1 26Z      -0.586100
     23 O23         -6.8950     1.1020    -0.1180 o          1 26Z      -0.545500
     24 O24         -7.1430    -0.9780     1.2460 o          1 26Z      -0.545500
     25 S25          1.9900    -0.5140     0.3100 ss         1 26Z      -0.063400
     26 S26         -6.5480    -0.2960     0.1040 sy         1 26Z       1.132600
     27 HN02        -0.3810    -1.7260     0.7280 hn         1 26Z       0.510000
     28 HN03         0.5850     3.6770    -0.8720 hn         1 26Z       0.519000
     29 HN0A         2.3250     3.6470    -0.8590 hn         1 26Z       0.519000
     30 HN04         6.5470    -3.5780    -0.9330 hn         1 26Z       0.448500
     31 HN0B         5.0970    -3.1440    -1.6380 hn         1 26Z       0.448500
     32 HN05        -6.6200    -0.8130    -2.0830 hn         1 26Z       0.473000
     33 HN0C        -7.8390    -1.5520    -1.2200 hn         1 26Z       0.473000
     34 H12          6.0430     1.7140     1.3740 ha         1 26Z       0.128000
     35 H13          7.8330     0.0390     1.7110 ha         1 26Z       0.113000
     36 H14          7.8040    -2.0910     0.4960 ha         1 26Z       0.112000
     37 H16          4.1650    -0.9290    -1.4420 ha         1 26Z       0.119000
     38 H17         -2.0240     1.4400    -0.3610 ha         1 26Z       0.137000
     39 H18         -4.4490     1.6010    -0.4900 ha         1 26Z       0.138000
     40 H20         -4.8080    -2.4500     0.9010 ha         1 26Z       0.138000
     41 H21         -2.3810    -2.6120     1.0290 ha         1 26Z       0.137000
@<TRIPOS>BOND
     1     1     7 1   
     2     1     8 2   
     3     2     8 1   
     4     2     9 1   
     5     2    27 1   
     6     3     7 1   
     7     3    28 1   
     8     3    29 1   
     9     4    15 1   
    10     4    30 1   
    11     4    31 1   
    12     5    26 1   
    13     5    32 1   
    14     5    33 1   
    15     6     7 2   
    16     6    10 1   
    17     6    25 1   
    18     8    25 1   
    19     9    17 ar  
    20     9    21 ar  
    21    10    11 1   
    22    10    22 2   
    23    11    12 ar  
    24    11    16 ar  
    25    12    13 ar  
    26    12    34 1   
    27    13    14 ar  
    28    13    35 1   
    29    14    15 ar  
    30    14    36 1   
    31    15    16 ar  
    32    16    37 1   
    33    17    18 ar  
    34    17    38 1   
    35    18    19 ar  
    36    18    39 1   
    37    19    20 ar  
    38    19    26 1   
    39    20    21 ar  
    40    20    40 1   
    41    21    41 1   
    42    23    26 2   
    43    24    26 2   
@<TRIPOS>SUBSTRUCTURE
     1 26Z         1 TEMP              0 ****  ****    0 ROOT
