@<TRIPOS>MOLECULE
270
   17    18     1     0     0
SMALL
abcg2


@<TRIPOS>ATOM
      1 N1           9.3970    18.2640    19.8900 n1         1 270      -0.520700
      2 C1           8.8800    18.6450    18.7330 cc         1 270       0.523200
      3 C2           9.5640    19.4820    20.5230 ca         1 270      -0.077000
      4 C3          10.0730    19.7880    21.7890 ca         1 270      -0.074000
      5 C4          10.1190    21.1230    22.1650 ca         1 270      -0.131500
      6 C5           9.6700    22.1430    21.3010 ca         1 270      -0.131500
      7 C6           9.1630    21.8570    20.0420 ca         1 270      -0.074000
      8 C7           9.1090    20.5150    19.6470 ca         1 270      -0.077000
      9 N3           8.6610    19.9320    18.4770 nc         1 270      -0.452300
     10 N2           8.4910    17.6600    17.7190 nz         1 270      -0.902200
     11 H1           7.5080    17.7860    17.4720 hn         1 270       0.496667
     12 H3          10.4210    19.0070    22.4550 ha         1 270       0.113000
     13 H4          10.5080    21.3880    23.1410 ha         1 270       0.101500
     14 H5           9.7220    23.1740    21.6310 ha         1 270       0.101500
     15 H6           8.8210    22.6480    19.3850 ha         1 270       0.113000
     16 H21          9.0320    17.7380    16.8530 hn         1 270       0.496667
     17 H22          8.5980    16.7050    18.0780 hn         1 270       0.496667
@<TRIPOS>BOND
     1     1     2 2   
     2     1     3 2   
     3     2     9 1   
     4     2    10 1   
     5     3     4 ar  
     6     3     8 ar  
     7     4     5 ar  
     8     4    12 1   
     9     5     6 ar  
    10     5    13 1   
    11     6     7 ar  
    12     6    14 1   
    13     7     8 ar  
    14     7    15 1   
    15     8     9 2   
    16    10    11 1   
    17    10    16 1   
    18    10    17 1   
@<TRIPOS>SUBSTRUCTURE
     1 270         1 TEMP              0 ****  ****    0 ROOT
