@<TRIPOS>MOLECULE
270
   17    18     1     0     0
SMALL
No Charge or Current Charge


@<TRIPOS>ATOM
      1 N1           9.5670    18.2510    19.8470 n1         1 270      -0.520700
      2 C1           9.0860    18.6560    18.6760 cc         1 270       0.523200
      3 C2           9.6270    19.4810    20.4110 ca         1 270      -0.077000
      4 C3          10.1210    19.7620    21.6950 ca         1 270      -0.074000
      5 C4          10.1030    21.0990    22.1500 ca         1 270      -0.131500
      6 C5           9.5920    22.1310    21.3280 ca         1 270      -0.131500
      7 C6           9.0970    21.8350    20.0410 ca         1 270      -0.074000
      8 C7           9.1350    20.5000    19.6170 ca         1 270      -0.077000
      9 N3           8.7300    19.9390    18.4580 nc         1 270      -0.452300
     10 N2           8.4720    17.7140    17.7990 nz         1 270      -0.902200
     11 H1           7.6530    18.1210    17.3440 hn         1 270       0.496667
     12 H3          10.5090    18.9670    22.3270 ha         1 270       0.113000
     13 H4          10.4820    21.3350    23.1420 ha         1 270       0.101500
     14 H5           9.5800    23.1570    21.6890 ha         1 270       0.101500
     15 H6           8.7000    22.6170    19.3980 ha         1 270       0.113000
     16 H21          9.1160    17.4080    17.0660 hn         1 270       0.496667
     17 H22          8.1660    16.8840    18.3120 hn         1 270       0.496667
@<TRIPOS>BOND
     1     1     2 2   
     2     1     3 2   
     3     2     9 1   
     4     2    10 1   
     5     3     4 ar  
     6     3     8 ar  
     7     4     5 ar  
     8     4    12 1   
     9     5     6 ar  
    10     5    13 1   
    11     6     7 ar  
    12     6    14 1   
    13     7     8 ar  
    14     7    15 1   
    15     8     9 2   
    16    10    11 1   
    17    10    16 1   
    18    10    17 1   
@<TRIPOS>SUBSTRUCTURE
     1 270         1 TEMP              0 ****  ****    0 ROOT
