@<TRIPOS>MOLECULE
271
   20    20     1     0     0
SMALL
No Charge or Current Charge


@<TRIPOS>ATOM
      1 N03         -2.2600     0.0580    -0.5080 n7         1 271      -0.858400
      2 C04         -3.7160     0.0190    -0.2750 c3         1 271       0.144100
      3 C23         -1.4300    -0.0170     0.7080 c3         1 271       0.202100
      4 C24          0.0500    -0.0140     0.3470 ca         1 271      -0.091300
      5 C25          0.7300     1.2040     0.1450 ca         1 271      -0.096000
      6 C26          2.0970     1.2080    -0.1830 ca         1 271      -0.115000
      7 C27          2.7940    -0.0050    -0.3110 ca         1 271      -0.108000
      8 C28          2.1220    -1.2230    -0.1120 ca         1 271      -0.115000
      9 C29          0.7550    -1.2280     0.2160 ca         1 271      -0.096000
     10 H03         -2.0080    -0.7400    -1.1060 hn         1 271       0.411000
     11 H041        -4.0090    -0.9160     0.2220 h1         1 271       0.029367
     12 H042        -4.0340     0.8590     0.3570 h1         1 271       0.029367
     13 H043        -4.2610     0.0840    -1.2270 h1         1 271       0.029367
     14 H231        -1.6400     0.8350     1.3690 h1         1 271       0.035200
     15 H232        -1.6590    -0.9320     1.2730 h1         1 271       0.035200
     16 H25          0.1960     2.1470     0.2410 ha         1 271       0.115500
     17 H26          2.6160     2.1520    -0.3370 ha         1 271       0.111500
     18 H27          3.8520    -0.0020    -0.5650 ha         1 271       0.111000
     19 H28          2.6600    -2.1640    -0.2110 ha         1 271       0.111500
     20 H29          0.2420    -2.1760     0.3690 ha         1 271       0.115500
@<TRIPOS>BOND
     1     1     2 1   
     2     1     3 1   
     3     1    10 1   
     4     2    11 1   
     5     2    12 1   
     6     2    13 1   
     7     3     4 1   
     8     3    14 1   
     9     3    15 1   
    10     4     5 ar  
    11     4     9 ar  
    12     5     6 ar  
    13     5    16 1   
    14     6     7 ar  
    15     6    17 1   
    16     7     8 ar  
    17     7    18 1   
    18     8     9 ar  
    19     8    19 1   
    20     9    20 1   
@<TRIPOS>SUBSTRUCTURE
     1 271         1 TEMP              0 ****  ****    0 ROOT
