@<TRIPOS>MOLECULE
272
   27    29     1     0     0
SMALL
abcg2


@<TRIPOS>ATOM
      1 C1          19.8300    -4.0940    17.2330 ca         1 272       0.176100
      2 C2          20.2820    -4.5450    15.9980 ca         1 272      -0.162000
      3 C3          19.3570    -4.5080    14.9670 ca         1 272       0.124100
      4 C4          18.0450    -4.0590    15.1160 ca         1 272      -0.282900
      5 C5          17.6150    -3.6000    16.3650 ca         1 272       0.007000
      6 C6          18.5120    -3.6230    17.4150 ca         1 272      -0.233000
      7 O10         19.5700    -4.8720    13.6820 os         1 272      -0.137100
      8 N11         18.3660    -4.6580    12.9560 nc         1 272      -0.264700
      9 C12         17.4830    -4.1820    13.7970 cd         1 272       0.467500
     10 C13         16.1100    -3.8600    13.3950 ca         1 272      -0.191900
     11 C14         15.8010    -3.1430    12.2250 ca         1 272       0.210100
     12 C15         14.4800    -2.8520    11.9020 ca         1 272      -0.248000
     13 C16         13.4480    -3.2720    12.7340 ca         1 272       0.191100
     14 C17         13.7290    -3.9810    13.9020 ca         1 272      -0.243000
     15 C18         15.0490    -4.2570    14.2160 ca         1 272      -0.014000
     16 O22         12.1800    -2.9610    12.3550 oh         1 272      -0.531100
     17 O23         16.8200    -2.7210    11.4320 oh         1 272      -0.513100
     18 O24         20.7150    -4.1200    18.2640 oh         1 272      -0.530100
     19 H2          21.2960    -4.8950    15.8630 ha         1 272       0.153000
     20 H5          16.6100    -3.2300    16.5120 ha         1 272       0.124000
     21 H6          18.2130    -3.2760    18.3960 ha         1 272       0.117000
     22 H15         14.2510    -2.2940    11.0020 ha         1 272       0.134000
     23 H17         12.9250    -4.3100    14.5480 ha         1 272       0.121000
     24 H18         15.2680    -4.8150    15.1170 ha         1 272       0.122000
     25 H22         11.5490    -3.3010    13.0040 ho         1 272       0.468000
     26 H23         16.4700    -2.1930    10.7010 ho         1 272       0.469000
     27 H24         20.2990    -3.7820    19.0690 ho         1 272       0.468000
@<TRIPOS>BOND
     1     1     2 ar  
     2     1     6 ar  
     3     1    18 1   
     4     2     3 ar  
     5     2    19 1   
     6     3     4 ar  
     7     3     7 1   
     8     4     5 ar  
     9     4     9 1   
    10     5     6 ar  
    11     5    20 1   
    12     6    21 1   
    13     7     8 1   
    14     8     9 2   
    15     9    10 1   
    16    10    11 ar  
    17    10    15 ar  
    18    11    12 ar  
    19    11    17 1   
    20    12    13 ar  
    21    12    22 1   
    22    13    14 ar  
    23    13    16 1   
    24    14    15 ar  
    25    14    23 1   
    26    15    24 1   
    27    16    25 1   
    28    17    26 1   
    29    18    27 1   
@<TRIPOS>SUBSTRUCTURE
     1 272         1 TEMP              0 ****  ****    0 ROOT
