@<TRIPOS>MOLECULE
272
   27    29     1     0     0
SMALL
No Charge or Current Charge


@<TRIPOS>ATOM
      1 C1          19.7980    -4.1150    17.2630 ca         1 272       0.176100
      2 C2          20.2570    -4.5970    16.0220 ca         1 272      -0.162000
      3 C3          19.3750    -4.5500    14.9380 ca         1 272       0.124100
      4 C4          18.1140    -4.0610    15.0630 ca         1 272      -0.282900
      5 C5          17.6250    -3.5530    16.2760 ca         1 272       0.007000
      6 C6          18.4910    -3.5920    17.3900 ca         1 272      -0.233000
      7 O10         19.6370    -4.9440    13.6540 os         1 272      -0.137100
      8 N11         18.4150    -4.6810    12.8810 nc         1 272      -0.264700
      9 C12         17.5380    -4.1610    13.7480 cd         1 272       0.467500
     10 C13         16.1460    -3.8160    13.4080 ca         1 272      -0.191900
     11 C14         15.8230    -3.1060    12.2310 ca         1 272       0.210100
     12 C15         14.4840    -2.8280    11.9170 ca         1 272      -0.248000
     13 C16         13.4580    -3.2650    12.7610 ca         1 272       0.191100
     14 C17         13.7630    -3.9840    13.9230 ca         1 272      -0.243000
     15 C18         15.1020    -4.2640    14.2440 ca         1 272      -0.014000
     16 O22         12.1650    -2.9910    12.4460 oh         1 272      -0.531100
     17 O23         16.7990    -2.6440    11.4000 oh         1 272      -0.513100
     18 O24         20.6260    -4.1440    18.3430 oh         1 272      -0.530100
     19 H2          21.2620    -4.9900    15.9090 ha         1 272       0.153000
     20 H5          16.6220    -3.1380    16.3600 ha         1 272       0.124000
     21 H6          18.1420    -3.2100    18.3460 ha         1 272       0.117000
     22 H15         14.2310    -2.2710    11.0190 ha         1 272       0.134000
     23 H17         12.9710    -4.3350    14.5790 ha         1 272       0.121000
     24 H18         15.3250    -4.8440    15.1380 ha         1 272       0.122000
     25 H22         11.5940    -3.3730    13.1460 ho         1 272       0.468000
     26 H23         16.3700    -2.1780    10.6520 ho         1 272       0.469000
     27 H24         20.1420    -3.7690    19.1090 ho         1 272       0.468000
@<TRIPOS>BOND
     1     1     2 ar  
     2     1     6 ar  
     3     1    18 1   
     4     2     3 ar  
     5     2    19 1   
     6     3     4 ar  
     7     3     7 1   
     8     4     5 ar  
     9     4     9 1   
    10     5     6 ar  
    11     5    20 1   
    12     6    21 1   
    13     7     8 1   
    14     8     9 2   
    15     9    10 1   
    16    10    11 ar  
    17    10    15 ar  
    18    11    12 ar  
    19    11    17 1   
    20    12    13 ar  
    21    12    22 1   
    22    13    14 ar  
    23    13    16 1   
    24    14    15 ar  
    25    14    23 1   
    26    15    24 1   
    27    16    25 1   
    28    17    26 1   
    29    18    27 1   
@<TRIPOS>SUBSTRUCTURE
     1 272         1 TEMP              0 ****  ****    0 ROOT
