@<TRIPOS>MOLECULE
273
   20    20     1     0     0
SMALL
No Charge or Current Charge


@<TRIPOS>ATOM
      1 C1          -0.6730    -1.0040    -0.6740 c5         1 273      -0.075400
      2 C2          -2.1780    -0.7890    -0.3330 c5         1 273      -0.079400
      3 C3          -2.2370     0.5730     0.4380 c5         1 273      -0.079400
      4 C4          -0.7940     1.1390     0.3410 c5         1 273      -0.075400
      5 C5           0.0360    -0.1720     0.4290 c5         1 273      -0.173000
      6 C6           1.5130     0.0520     0.1070 c2         1 273       0.625200
      7 N7           2.4630    -0.4680     0.9030 nv         1 273      -1.049200
      8 N8           1.9240     0.6850    -0.9040 n2         1 273      -0.852100
      9 H11         -0.3880    -2.0620    -0.6510 hc         1 273       0.047450
     10 H12         -0.4470    -0.6330    -1.6820 hc         1 273       0.047450
     11 H21         -2.7930    -0.7730    -1.2400 hc         1 273       0.044200
     12 H22         -2.5620    -1.6030     0.2940 hc         1 273       0.044200
     13 H31         -2.9750     1.2600     0.0090 hc         1 273       0.044200
     14 H32         -2.5230     0.4120     1.4840 hc         1 273       0.044200
     15 H41         -0.6450     1.6750    -0.6040 hc         1 273       0.047450
     16 H42         -0.5660     1.8380     1.1540 hc         1 273       0.047450
     17 H5          -0.0770    -0.6420     1.4140 hc         1 273       0.064700
     18 H71          2.1830    -1.3240     1.3700 hn         1 273       0.471000
     19 H72          3.3660    -0.5090     0.4460 hn         1 273       0.471000
     20 H8           1.0970     1.0110    -1.4220 hn         1 273       0.384400
@<TRIPOS>BOND
     1     1     2 1   
     2     1     5 1   
     3     1     9 1   
     4     1    10 1   
     5     2     3 1   
     6     2    11 1   
     7     2    12 1   
     8     3     4 1   
     9     3    13 1   
    10     3    14 1   
    11     4     5 1   
    12     4    15 1   
    13     4    16 1   
    14     5     6 1   
    15     5    17 1   
    16     6     7 1   
    17     6     8 2   
    18     7    18 1   
    19     7    19 1   
    20     8    20 1   
@<TRIPOS>SUBSTRUCTURE
     1 273         1 TEMP              0 ****  ****    0 ROOT
