@<TRIPOS>MOLECULE
273
   20    20     1     0     0
SMALL
bcc


@<TRIPOS>ATOM
      1 C1          -0.6200    -1.1280    -0.4200 c5         1 273      -0.075400
      2 C2          -2.1310    -0.8180    -0.3400 c5         1 273      -0.079400
      3 C3          -2.2470     0.5330     0.3910 c5         1 273      -0.079400
      4 C4          -0.8640     1.1640     0.2580 c5         1 273      -0.075400
      5 C5           0.0630    -0.0340     0.4260 c5         1 273      -0.173000
      6 C6           1.5130     0.1650     0.0480 c2         1 273       0.625200
      7 N7           2.3490    -0.7690     0.5820 nv         1 273      -0.938800
      8 N8           1.9830     1.0950    -0.6930 n2         1 273      -0.852100
      9 H11         -0.3780    -2.1310    -0.0690 hc         1 273       0.047450
     10 H12         -0.2710    -1.0600    -1.4530 hc         1 273       0.047450
     11 H21         -2.5570    -0.7540    -1.3410 hc         1 273       0.044200
     12 H22         -2.6780    -1.6020     0.1830 hc         1 273       0.044200
     13 H31         -3.0400     1.1640    -0.0120 hc         1 273       0.044200
     14 H32         -2.4720     0.3730     1.4480 hc         1 273       0.044200
     15 H41         -0.7540     1.5980    -0.7420 hc         1 273       0.047450
     16 H42         -0.6800     1.9560     0.9860 hc         1 273       0.047450
     17 H5           0.0310    -0.3390     1.4780 hc         1 273       0.064700
     18 H71          1.9600    -1.6270     0.9330 hn         1 273       0.415800
     19 H72          3.2710    -0.8510     0.1870 hn         1 273       0.415800
     20 H8           1.2470     1.7310    -0.9710 hn         1 273       0.384400
@<TRIPOS>BOND
     1     1     2 1   
     2     1     5 1   
     3     1     9 1   
     4     1    10 1   
     5     2     3 1   
     6     2    11 1   
     7     2    12 1   
     8     3     4 1   
     9     3    13 1   
    10     3    14 1   
    11     4     5 1   
    12     4    15 1   
    13     4    16 1   
    14     5     6 1   
    15     5    17 1   
    16     6     7 1   
    17     6     8 2   
    18     7    18 1   
    19     7    19 1   
    20     8    20 1   
@<TRIPOS>SUBSTRUCTURE
     1 273         1 TEMP              0 ****  ****    0 ROOT
