@<TRIPOS>MOLECULE
274
   69    73     1     0     0
SMALL
abcg2


@<TRIPOS>ATOM
      1 C22          2.1320     1.9550     0.9910 c          1 274       0.646700
      2 O4           1.1070     1.5780     0.4320 o          1 274      -0.604100
      3 C19          3.1190     0.9610     1.4790 cc         1 274      -0.242600
      4 C18          3.5570     0.7600     2.7970 cc         1 274      -0.037300
      5 C21          3.1790     1.5520     4.0010 c3         1 274      -0.036800
      6 C20          3.7160    -0.0160     0.6760 cd         1 274      -0.060300
      7 C23          3.6110    -0.2540    -0.7860 c3         1 274      -0.045800
      8 N3           4.5070    -0.7560     1.4580 na         1 274      -0.067000
      9 C17          4.4410    -0.3270     2.7620 cd         1 274      -0.225800
     10 C16          5.1740    -0.8390     3.8460 cf         1 274       0.035800
     11 C14          6.1550    -1.7840     3.9300 cc         1 274      -0.216400
     12 C12          6.8960    -2.0940     5.1360 ca         1 274      -0.108800
     13 C9           6.7610    -1.6800     6.4440 ca         1 274       0.025000
     14 C15          6.7850    -2.5670     2.8560 c          1 274       0.589200
     15 O3           6.4940    -2.6520     1.6690 o          1 274      -0.571000
     16 N2           7.8350    -3.2350     3.4370 ns         1 274      -0.391100
     17 C13          7.9420    -2.9610     4.7810 ca         1 274       0.109600
     18 C11          8.8810    -3.3950     5.6970 ca         1 274      -0.167000
     19 C10          8.7760    -2.9320     7.0030 ca         1 274       0.018000
     20 C8           7.7250    -2.0930     7.3640 ca         1 274      -0.343500
     21 S1           7.6550    -1.4150     8.9860 sy         1 274       1.152600
     22 O1           6.2630    -1.2950     9.3780 o          1 274      -0.529500
     23 O2           8.5870    -2.1300     9.8400 o          1 274      -0.529500
     24 N1           8.2500     0.1490     8.8340 nh         1 274      -0.722300
     25 C7           9.6800     0.2520     8.5430 c3         1 274       0.175100
     26 C3           7.3840     1.0620     8.1650 ca         1 274       0.236000
     27 C1           7.5650     1.3560     6.8150 ca         1 274      -0.125000
     28 C2           6.6830     2.2240     6.1930 ca         1 274       0.117000
     29 CL1          6.8850     2.5670     4.5050 cl         1 274      -0.200000
     30 C4           5.6310     2.8070     6.8810 ca         1 274      -0.104000
     31 C5           5.4720     2.5140     8.2290 ca         1 274      -0.095000
     32 C6           6.3430     1.6490     8.8740 ca         1 274      -0.064000
     33 C24          1.4630     4.2830     0.7910 c6         1 274       0.096500
     34 C27          1.4190     5.4030     1.8150 c6         1 274       0.149300
     35 N5           2.7400     5.9550     2.0390 n3         1 274      -0.713600
     36 C28          2.7010     7.0830     2.9450 c3         1 274       0.151100
     37 C26          3.6400     4.9220     2.5110 c6         1 274       0.149300
     38 C25          3.7290     3.7910     1.5020 c6         1 274       0.096500
     39 N4           2.4080     3.2590     1.2050 n          1 274      -0.405800
     40 H211         3.9080     2.3400     4.1960 hc         1 274       0.048033
     41 H212         2.2120     2.0340     3.8740 hc         1 274       0.048033
     42 H213         3.1250     0.9340     4.8970 hc         1 274       0.048033
     43 H231         3.4000    -1.3020    -0.9970 hc         1 274       0.061700
     44 H232         2.8150     0.3430    -1.2220 hc         1 274       0.061700
     45 H233         4.5440     0.0020    -1.2920 hc         1 274       0.061700
     46 H3           5.1140    -1.5230     1.1710 hn         1 274       0.396000
     47 H16          4.9250    -0.3560     4.7850 ha         1 274       0.189000
     48 H9           5.9300    -1.0550     6.7440 ha         1 274       0.138000
     49 H2           8.4500    -3.8470     2.9220 hn         1 274       0.344500
     50 H11          9.6860    -4.0610     5.4150 ha         1 274       0.128000
     51 H10          9.5110    -3.2380     7.7340 ha         1 274       0.141000
     52 H7C1         9.9580    -0.1470     7.5640 h1         1 274       0.056367
     53 H7C2        10.2510    -0.2650     9.3090 h1         1 274       0.056367
     54 H7C3         9.9490     1.3050     8.5770 h1         1 274       0.056367
     55 H1           8.3730     0.9100     6.2510 ha         1 274       0.136000
     56 H6           6.2180     1.4320     9.9250 ha         1 274       0.145000
     57 H4           4.9520     3.4840     6.3810 ha         1 274       0.130000
     58 H5           4.6630     2.9710     8.7800 ha         1 274       0.128000
     59 H241         0.4740     3.8460     0.6810 h1         1 274       0.059200
     60 H242         1.7620     4.6840    -0.1840 h1         1 274       0.059200
     61 H271         0.7630     6.1900     1.4380 h1         1 274       0.038950
     62 H272         0.9700     5.0230     2.7490 h1         1 274       0.038950
     63 H281         3.7020     7.5000     3.0620 h1         1 274       0.032367
     64 H282         2.3250     6.8230     3.9450 h1         1 274       0.032367
     65 H283         2.0580     7.8640     2.5380 h1         1 274       0.032367
     66 H261         3.3230     4.5240     3.4900 h1         1 274       0.038950
     67 H262         4.6380     5.3460     2.6400 h1         1 274       0.038950
     68 H251         4.1760     4.1650     0.5750 h1         1 274       0.059200
     69 H252         4.3810     3.0080     1.8800 h1         1 274       0.059200
@<TRIPOS>BOND
     1     1     2 2   
     2     1     3 1   
     3     1    39 1   
     4     3     4 1   
     5     3     6 2   
     6     4     5 1   
     7     4     9 2   
     8     5    40 1   
     9     5    41 1   
    10     5    42 1   
    11     6     7 1   
    12     6     8 1   
    13     7    43 1   
    14     7    44 1   
    15     7    45 1   
    16     8     9 1   
    17     8    46 1   
    18     9    10 1   
    19    10    11 2   
    20    10    47 1   
    21    11    12 1   
    22    11    14 1   
    23    12    13 ar  
    24    12    17 ar  
    25    13    20 ar  
    26    13    48 1   
    27    14    15 2   
    28    14    16 1   
    29    16    17 1   
    30    16    49 1   
    31    17    18 ar  
    32    18    19 ar  
    33    18    50 1   
    34    19    20 ar  
    35    19    51 1   
    36    20    21 1   
    37    21    22 2   
    38    21    23 2   
    39    21    24 1   
    40    24    25 1   
    41    24    26 1   
    42    25    52 1   
    43    25    53 1   
    44    25    54 1   
    45    26    27 ar  
    46    26    32 ar  
    47    27    28 ar  
    48    27    55 1   
    49    28    29 1   
    50    28    30 ar  
    51    30    31 ar  
    52    30    57 1   
    53    31    32 ar  
    54    31    58 1   
    55    32    56 1   
    56    33    34 1   
    57    33    39 1   
    58    33    59 1   
    59    33    60 1   
    60    34    35 1   
    61    34    61 1   
    62    34    62 1   
    63    35    36 1   
    64    35    37 1   
    65    36    63 1   
    66    36    64 1   
    67    36    65 1   
    68    37    38 1   
    69    37    66 1   
    70    37    67 1   
    71    38    39 1   
    72    38    68 1   
    73    38    69 1   
@<TRIPOS>SUBSTRUCTURE
     1 274         1 TEMP              0 ****  ****    0 ROOT
