@<TRIPOS>MOLECULE
274
   69    73     1     0     0
SMALL
No Charge or Current Charge


@<TRIPOS>ATOM
      1 C22          2.2830     2.0480     0.6980 c          1 274       0.646700
      2 O4           1.6070     1.8360    -0.3020 o          1 274      -0.604100
      3 C19          3.2360     1.0350     1.2550 cc         1 274      -0.242600
      4 C18          3.6420     0.8520     2.6150 cc         1 274      -0.037300
      5 C21          3.0940     1.5980     3.8140 c3         1 274      -0.036800
      6 C20          3.8260     0.0550     0.4930 cd         1 274      -0.060300
      7 C23          3.7340    -0.2270    -0.9860 c3         1 274      -0.045800
      8 N3           4.6530    -0.6650     1.3510 na         1 274      -0.067000
      9 C17          4.5410    -0.1870     2.6590 cd         1 274      -0.225800
     10 C16          5.2390    -0.6990     3.8460 cf         1 274       0.035800
     11 C14          6.1600    -1.7050     3.9960 cc         1 274      -0.216400
     12 C12          6.8020    -2.0820     5.2590 ca         1 274      -0.108800
     13 C9           6.6380    -1.5800     6.5560 ca         1 274       0.025000
     14 C15          6.7480    -2.5890     2.9470 c          1 274       0.589200
     15 O3           6.5260    -2.6540     1.7470 o          1 274      -0.571000
     16 N2           7.6510    -3.3490     3.6380 ns         1 274      -0.391100
     17 C13          7.7270    -3.0730     4.9970 ca         1 274       0.109600
     18 C11          8.5590    -3.6080     5.9830 ca         1 274      -0.167000
     19 C10          8.4440    -3.0870     7.2890 ca         1 274       0.018000
     20 C8           7.4890    -2.0740     7.5740 ca         1 274      -0.343500
     21 S1           7.3990    -1.3470     9.2170 sy         1 274       1.152600
     22 O1           6.0170    -0.9340     9.4830 o          1 274      -0.529500
     23 O2           8.1490    -2.1830    10.1620 o          1 274      -0.529500
     24 N1           8.3080     0.0750     8.9440 nh         1 274      -0.722300
     25 C7           9.7480     0.0270     9.2610 c3         1 274       0.175100
     26 C3           7.8240     0.9470     7.9490 ca         1 274       0.236000
     27 C1           8.4390     0.9920     6.6820 ca         1 274      -0.125000
     28 C2           7.9130     1.8050     5.6660 ca         1 274       0.117000
     29 Cl1          8.6560     1.8040     4.0730 cl         1 274      -0.200000
     30 C4           6.7840     2.6020     5.9100 ca         1 274      -0.104000
     31 C5           6.1800     2.5870     7.1780 ca         1 274      -0.095000
     32 C6           6.7000     1.7610     8.1920 ca         1 274      -0.064000
     33 C24          1.0940     4.2270     1.0270 c6         1 274       0.096500
     34 C27          0.9370     5.3960     2.0390 c6         1 274       0.149300
     35 N5           2.2140     6.1250     2.2620 n3         1 274      -0.713600
     36 C28          2.0570     7.2810     3.1710 c3         1 274       0.151100
     37 C26          3.2650     5.1780     2.7200 c6         1 274       0.149300
     38 C25          3.4730     4.0130     1.7150 c6         1 274       0.096500
     39 N4           2.2110     3.2930     1.3550 n          1 274      -0.405800
     40 H211         3.7890     2.3740     4.1530 hc         1 274       0.048033
     41 H212         2.1230     2.0590     3.6100 hc         1 274       0.048033
     42 H213         2.9330     0.9130     4.6550 hc         1 274       0.048033
     43 H231         4.4710    -0.9760    -1.3010 hc         1 274       0.061700
     44 H232         2.7410    -0.6060    -1.2530 hc         1 274       0.061700
     45 H233         3.9170     0.6810    -1.5720 hc         1 274       0.061700
     46 H3           5.2550    -1.4410     1.0760 hn         1 274       0.396000
     47 H16          4.9990    -0.1820     4.7740 ha         1 274       0.189000
     48 H9           5.9110    -0.7990     6.7650 ha         1 274       0.138000
     49 H2           8.2260    -4.0460     3.1830 hn         1 274       0.344500
     50 H11          9.2880    -4.3790     5.7470 ha         1 274       0.128000
     51 H10          9.1030    -3.4630     8.0710 ha         1 274       0.141000
     52 H7C1        10.2440    -0.7780     8.7020 h1         1 274       0.056367
     53 H7C2         9.9010    -0.1410    10.3350 h1         1 274       0.056367
     54 H7C3        10.2310     0.9780     9.0020 h1         1 274       0.056367
     55 H1           9.2980     0.3630     6.4730 ha         1 274       0.136000
     56 H6           6.2250     1.7450     9.1690 ha         1 274       0.145000
     57 H4           6.3800     3.2290     5.1190 ha         1 274       0.130000
     58 H5           5.3070     3.2060     7.3740 ha         1 274       0.128000
     59 H241         0.1490     3.6670     0.9860 h1         1 274       0.059200
     60 H242         1.2690     4.6460     0.0260 h1         1 274       0.059200
     61 H271         0.1650     6.0840     1.6630 h1         1 274       0.038950
     62 H272         0.5660     4.9870     2.9900 h1         1 274       0.038950
     63 H281         3.0060     7.8240     3.2760 h1         1 274       0.032367
     64 H282         1.7340     6.9560     4.1690 h1         1 274       0.032367
     65 H283         1.3080     7.9830     2.7790 h1         1 274       0.032367
     66 H261         2.9930     4.7550     3.6990 h1         1 274       0.038950
     67 H262         4.2220     5.7040     2.8510 h1         1 274       0.038950
     68 H251         3.8950     4.4330     0.7910 h1         1 274       0.059200
     69 H252         4.2310     3.3260     2.1080 h1         1 274       0.059200
@<TRIPOS>BOND
     1     1     2 2   
     2     1     3 1   
     3     1    39 1   
     4     3     4 1   
     5     3     6 2   
     6     4     5 1   
     7     4     9 2   
     8     5    40 1   
     9     5    41 1   
    10     5    42 1   
    11     6     7 1   
    12     6     8 1   
    13     7    43 1   
    14     7    44 1   
    15     7    45 1   
    16     8     9 1   
    17     8    46 1   
    18     9    10 1   
    19    10    11 2   
    20    10    47 1   
    21    11    12 1   
    22    11    14 1   
    23    12    13 ar  
    24    12    17 ar  
    25    13    20 ar  
    26    13    48 1   
    27    14    15 2   
    28    14    16 1   
    29    16    17 1   
    30    16    49 1   
    31    17    18 ar  
    32    18    19 ar  
    33    18    50 1   
    34    19    20 ar  
    35    19    51 1   
    36    20    21 1   
    37    21    22 2   
    38    21    23 2   
    39    21    24 1   
    40    24    25 1   
    41    24    26 1   
    42    25    52 1   
    43    25    53 1   
    44    25    54 1   
    45    26    27 ar  
    46    26    32 ar  
    47    27    28 ar  
    48    27    55 1   
    49    28    29 1   
    50    28    30 ar  
    51    30    31 ar  
    52    30    57 1   
    53    31    32 ar  
    54    31    58 1   
    55    32    56 1   
    56    33    34 1   
    57    33    39 1   
    58    33    59 1   
    59    33    60 1   
    60    34    35 1   
    61    34    61 1   
    62    34    62 1   
    63    35    36 1   
    64    35    37 1   
    65    36    63 1   
    66    36    64 1   
    67    36    65 1   
    68    37    38 1   
    69    37    66 1   
    70    37    67 1   
    71    38    39 1   
    72    38    68 1   
    73    38    69 1   
@<TRIPOS>SUBSTRUCTURE
     1 274         1 TEMP              0 ****  ****    0 ROOT
