@<TRIPOS>MOLECULE
275
   20    20     1     0     0
SMALL
No Charge or Current Charge


@<TRIPOS>ATOM
      1 C1           2.6120     0.9360     0.0320 c3         1 275      -0.074800
      2 C2           1.1260     0.5760     0.0330 ca         1 275      -0.017600
      3 C3           0.1600     1.6030     0.0040 ca         1 275      -0.081000
      4 C4          -1.2110     1.2860     0.0040 ca         1 275      -0.080000
      5 C5          -1.6180    -0.0550     0.0330 ca         1 275       0.324000
      6 N6          -2.9480    -0.3860     0.0350 nv         1 275      -1.052000
      7 C7          -0.6520    -1.0680     0.0630 ca         1 275      -0.182000
      8 N8           0.7160    -0.7710     0.0630 na         1 275       0.109300
      9 C9           1.7000    -1.8710     0.0940 c3         1 275       0.008900
     10 H11          3.1150     0.5600     0.9320 hc         1 275       0.085700
     11 H12          3.1240     0.5190    -0.8430 hc         1 275       0.085700
     12 H13          2.7680     2.0220     0.0080 hc         1 275       0.085700
     13 H3           0.4670     2.6470    -0.0180 ha         1 275       0.170000
     14 H4          -1.9510     2.0810    -0.0160 ha         1 275       0.164000
     15 H61         -3.6540     0.3300    -0.1380 hn         1 275       0.498000
     16 H62         -3.2370    -1.3540    -0.0970 hn         1 275       0.498000
     17 H7          -0.9430    -2.1160     0.0900 h4         1 275       0.177000
     18 H91          2.3240    -1.7830     0.9910 h1         1 275       0.094033
     19 H92          1.1910    -2.8420     0.1140 h1         1 275       0.094033
     20 H93          2.3340    -1.8240    -0.7990 h1         1 275       0.094033
@<TRIPOS>BOND
     1     1     2 1   
     2     1    10 1   
     3     1    11 1   
     4     1    12 1   
     5     2     3 ar  
     6     2     8 2   
     7     3     4 ar  
     8     3    13 1   
     9     4     5 ar  
    10     4    14 1   
    11     5     6 1   
    12     5     7 ar  
    13     6    15 1   
    14     6    16 1   
    15     7     8 1   
    16     7    17 1   
    17     8     9 1   
    18     9    18 1   
    19     9    19 1   
    20     9    20 1   
@<TRIPOS>SUBSTRUCTURE
     1 275         1 TEMP              0 ****  ****    0 ROOT
