@<TRIPOS>MOLECULE
275
   20    20     1     0     0
SMALL
abcg2


@<TRIPOS>ATOM
      1 C1           2.5780     0.8680     0.0290 c3         1 275      -0.074800
      2 C2           1.1190     0.5730     0.0360 ca         1 275      -0.017600
      3 C3           0.1540     1.5700     0.0080 ca         1 275      -0.081000
      4 C4          -1.1890     1.2730     0.0150 ca         1 275      -0.080000
      5 C5          -1.6120    -0.0630     0.0510 ca         1 275       0.324000
      6 N6          -2.9260    -0.4050     0.1080 nv         1 275      -1.052000
      7 C7          -0.6140    -1.0280     0.0720 ca         1 275      -0.182000
      8 N8           0.6880    -0.7010     0.0670 na         1 275       0.109300
      9 C9           1.6700    -1.7900     0.0910 c3         1 275       0.008900
     10 H11          3.0760     0.4800     0.9190 hc         1 275       0.085700
     11 H12          3.0750     0.4380    -0.8420 hc         1 275       0.085700
     12 H13          2.7290     1.9440     0.0030 hc         1 275       0.085700
     13 H3           0.4770     2.6000    -0.0210 ha         1 275       0.170000
     14 H4          -1.9190     2.0720    -0.0070 ha         1 275       0.164000
     15 H61         -3.5930     0.2810    -0.2030 hn         1 275       0.498000
     16 H62         -3.1790    -1.3500    -0.1290 hn         1 275       0.498000
     17 H7          -0.8440    -2.0820     0.0970 h4         1 275       0.177000
     18 H91          2.2830    -1.7110     0.9850 h1         1 275       0.094033
     19 H92          1.1490    -2.7410     0.0980 h1         1 275       0.094033
     20 H93          2.3010    -1.7350    -0.7910 h1         1 275       0.094033
@<TRIPOS>BOND
     1     1     2 1   
     2     1    10 1   
     3     1    11 1   
     4     1    12 1   
     5     2     3 ar  
     6     2     8 2   
     7     3     4 ar  
     8     3    13 1   
     9     4     5 ar  
    10     4    14 1   
    11     5     6 1   
    12     5     7 ar  
    13     6    15 1   
    14     6    16 1   
    15     7     8 1   
    16     7    17 1   
    17     8     9 1   
    18     9    18 1   
    19     9    19 1   
    20     9    20 1   
@<TRIPOS>SUBSTRUCTURE
     1 275         1 TEMP              0 ****  ****    0 ROOT
