@<TRIPOS>MOLECULE
276
   47    50     1     0     0
SMALL
No Charge or Current Charge


@<TRIPOS>ATOM
      1 C1          -5.0950     1.1730    -1.0120 ca         1 276      -0.230000
      2 C2          -6.1970     1.2340    -1.8740 ca         1 276       0.366900
      3 N3          -7.4340     0.8270    -1.5110 nb         1 276      -0.701000
      4 C4          -7.6220     0.3390    -0.2460 ca         1 276       0.312500
      5 C5          -6.5550     0.2510     0.6700 ca         1 276      -0.139000
      6 C6          -5.2760     0.6620     0.2810 ca         1 276       0.167100
      7 C10         -9.0260    -0.1190     0.1760 c          1 276       0.502600
      8 O11         -9.2870    -0.5690     1.2890 o          1 276      -0.604100
      9 N12        -10.0080     0.0050    -0.7890 ns         1 276      -0.487900
     10 C13        -11.4120    -0.3680    -0.6100 c3         1 276       0.096300
     11 O17         -4.2370     0.5920     1.1810 os         1 276      -0.240200
     12 C18         -2.9440     0.2990     0.8110 ca         1 276       0.093100
     13 C19         -1.8850     0.9890     1.4360 ca         1 276      -0.109000
     14 C20         -0.5820     0.6590     1.0480 ca         1 276      -0.073200
     15 C21         -0.3030    -0.2940     0.1090 ca         1 276       0.101400
     16 C22         -1.3380    -1.0030    -0.5180 ca         1 276      -0.053000
     17 C23         -2.6710    -0.7030    -0.1570 ca         1 276      -0.129000
     18 N27          0.6150     1.1530     1.4670 na         1 276      -0.348600
     19 C28          1.5840     0.4780     0.7540 cc         1 276       0.666700
     20 N29          1.0710    -0.4250    -0.0860 nd         1 276      -0.628100
     21 N32          2.9120     0.6960     0.9280 nu         1 276      -0.904200
     22 C33          4.0460     0.1320     0.3430 ca         1 276       0.319000
     23 C34          5.2050    -0.0390     1.1210 ca         1 276      -0.126000
     24 C35          6.3890    -0.5940     0.5710 ca         1 276      -0.158300
     25 C36          6.3850    -0.9710    -0.7950 ca         1 276       0.127000
     26 C37          5.2310    -0.7890    -1.5760 ca         1 276      -0.079000
     27 C38          4.0690    -0.2380    -1.0120 ca         1 276      -0.103000
     28 C43          7.6440    -0.7800     1.4410 c3         1 276       0.364300
     29 Cl44         7.8050    -1.6690    -1.5760 cl         1 276      -0.167000
     30 F45          7.4680    -0.3670     2.7180 f          1 276      -0.107667
     31 F46          8.0190    -2.0780     1.5100 f          1 276      -0.107667
     32 F47          8.6980    -0.0830     0.9590 f          1 276      -0.107667
     33 H1          -4.1250     1.5240    -1.3510 ha         1 276       0.138000
     34 H2          -6.0900     1.6230    -2.8860 h4         1 276       0.021100
     35 H5          -6.7190    -0.1350     1.6710 ha         1 276       0.164000
     36 HN12        -9.7030     0.3870    -1.6800 hn         1 276       0.343500
     37 H131       -11.8480     0.2180     0.2100 h1         1 276       0.040367
     38 H132       -11.9670    -0.1630    -1.5350 h1         1 276       0.040367
     39 H133       -11.4840    -1.4370    -0.3740 h1         1 276       0.040367
     40 H19         -2.0790     1.7500     2.1880 ha         1 276       0.136000
     41 H22         -1.1170    -1.7670    -1.2590 ha         1 276       0.137000
     42 H23         -3.4870    -1.2490    -0.6230 ha         1 276       0.134000
     43 HN27         0.7760     1.8780     2.1500 hn         1 276       0.360000
     44 HN32         3.0940     1.2230     1.7770 hn         1 276       0.501000
     45 H34          5.1740     0.2600     2.1650 ha         1 276       0.129000
     46 H37          5.2400    -1.0740    -2.6250 ha         1 276       0.139000
     47 H38          3.1910    -0.0910    -1.6330 ha         1 276       0.167000
@<TRIPOS>BOND
     1     1     2 ar  
     2     1     6 ar  
     3     1    33 1   
     4     2     3 ar  
     5     2    34 1   
     6     3     4 ar  
     7     4     5 ar  
     8     4     7 1   
     9     5     6 ar  
    10     5    35 1   
    11     6    11 1   
    12     7     8 2   
    13     7     9 1   
    14     9    10 1   
    15     9    36 1   
    16    10    37 1   
    17    10    38 1   
    18    10    39 1   
    19    11    12 1   
    20    12    13 ar  
    21    12    17 ar  
    22    13    14 ar  
    23    13    40 1   
    24    14    15 ar  
    25    14    18 1   
    26    15    16 ar  
    27    15    20 1   
    28    16    17 ar  
    29    16    41 1   
    30    17    42 1   
    31    18    19 1   
    32    18    43 1   
    33    19    20 2   
    34    19    21 1   
    35    21    22 1   
    36    21    44 1   
    37    22    23 ar  
    38    22    27 ar  
    39    23    24 ar  
    40    23    45 1   
    41    24    25 ar  
    42    24    28 1   
    43    25    26 ar  
    44    25    29 1   
    45    26    27 ar  
    46    26    46 1   
    47    27    47 1   
    48    28    30 1   
    49    28    31 1   
    50    28    32 1   
@<TRIPOS>SUBSTRUCTURE
     1 276         1 TEMP              0 ****  ****    0 ROOT
