@<TRIPOS>MOLECULE
276
   47    50     1     0     0
SMALL
abcg2


@<TRIPOS>ATOM
      1 C1          -4.7970     0.5030    -0.9090 ca         1 276      -0.230000
      2 C2          -5.7780     1.2100    -1.5890 ca         1 276       0.366900
      3 N3          -7.0620     1.1860    -1.2710 nb         1 276      -0.701000
      4 C4          -7.4260     0.4330    -0.2350 ca         1 276       0.312500
      5 C5          -6.5390    -0.3160     0.5150 ca         1 276      -0.139000
      6 C6          -5.1910    -0.2810     0.1680 ca         1 276       0.167100
      7 C10         -8.8870     0.4080     0.1250 c          1 276       0.502600
      8 O11         -9.3010    -0.2740     1.0530 o          1 276      -0.604100
      9 N12         -9.6610     1.1780    -0.6390 ns         1 276      -0.487900
     10 C13        -11.0880     1.2760    -0.4540 c3         1 276       0.096300
     11 O17         -4.3560    -1.0200     0.9190 os         1 276      -0.240200
     12 C18         -3.0100    -1.0430     0.6070 ca         1 276       0.093100
     13 C19         -2.1630    -0.1850     1.2890 ca         1 276      -0.109000
     14 C20         -0.8200    -0.2840     0.9700 ca         1 276      -0.073200
     15 C21         -0.3250    -1.1870     0.0130 ca         1 276       0.101400
     16 C22         -1.2040    -2.0300    -0.6550 ca         1 276      -0.053000
     17 C23         -2.5550    -1.9500    -0.3500 ca         1 276      -0.129000
     18 N27          0.2890     0.3770     1.4320 na         1 276      -0.348600
     19 C28          1.3620    -0.1320     0.7620 cc         1 276       0.666700
     20 N29          1.0410    -1.0660    -0.0920 nd         1 276      -0.628100
     21 N32          2.6040     0.3490     1.0280 nu         1 276      -0.904200
     22 C33          3.8120    -0.0220     0.4640 ca         1 276       0.319000
     23 C34          4.9560     0.6290     0.9330 ca         1 276      -0.126000
     24 C35          6.2110     0.3310     0.4330 ca         1 276      -0.158300
     25 C36          6.3360    -0.6390    -0.5610 ca         1 276       0.127000
     26 C37          5.2080    -1.2870    -1.0300 ca         1 276      -0.079000
     27 C38          3.9520    -0.9900    -0.5300 ca         1 276      -0.103000
     28 C43          7.4140     1.0550     0.9650 c3         1 276       0.364300
     29 CL44         7.8730    -1.0620    -1.2310 cl         1 276      -0.167000
     30 F45          7.0920     1.9370     1.9140 f          1 276      -0.107667
     31 F46          8.3030     0.2140     1.5040 f          1 276      -0.107667
     32 F47          8.0480     1.7350     0.0020 f          1 276      -0.107667
     33 H1          -3.7670     0.5760    -1.2290 ha         1 276       0.138000
     34 H2          -5.4980     1.8270    -2.4340 h4         1 276       0.021100
     35 H5          -6.8810    -0.9110     1.3500 ha         1 276       0.164000
     36 HN12        -9.2190     1.6850    -1.3900 hn         1 276       0.343500
     37 H131       -11.3370     1.5570     0.5700 h1         1 276       0.040367
     38 H132       -11.4700     2.0410    -1.1220 h1         1 276       0.040367
     39 H133       -11.5920     0.3360    -0.6820 h1         1 276       0.040367
     40 H19         -2.5390     0.5100     2.0290 ha         1 276       0.136000
     41 H22         -0.8460    -2.7350    -1.3950 ha         1 276       0.137000
     42 H23         -3.2630    -2.5980    -0.8500 ha         1 276       0.134000
     43 HN27         0.3050     1.1050     2.1290 hn         1 276       0.360000
     44 HN32         2.6550     1.0690     1.7330 hn         1 276       0.501000
     45 H34          4.8490     1.3800     1.7050 ha         1 276       0.129000
     46 H37          5.3030    -2.0380    -1.8020 ha         1 276       0.139000
     47 H38          3.0900    -1.5120    -0.9130 ha         1 276       0.167000
@<TRIPOS>BOND
     1     1     2 ar  
     2     1     6 ar  
     3     1    33 1   
     4     2     3 ar  
     5     2    34 1   
     6     3     4 ar  
     7     4     5 ar  
     8     4     7 1   
     9     5     6 ar  
    10     5    35 1   
    11     6    11 1   
    12     7     8 2   
    13     7     9 1   
    14     9    10 1   
    15     9    36 1   
    16    10    37 1   
    17    10    38 1   
    18    10    39 1   
    19    11    12 1   
    20    12    13 ar  
    21    12    17 ar  
    22    13    14 ar  
    23    13    40 1   
    24    14    15 ar  
    25    14    18 1   
    26    15    16 ar  
    27    15    20 1   
    28    16    17 ar  
    29    16    41 1   
    30    17    42 1   
    31    18    19 1   
    32    18    43 1   
    33    19    20 2   
    34    19    21 1   
    35    21    22 1   
    36    21    44 1   
    37    22    23 ar  
    38    22    27 ar  
    39    23    24 ar  
    40    23    45 1   
    41    24    25 ar  
    42    24    28 1   
    43    25    26 ar  
    44    25    29 1   
    45    26    27 ar  
    46    26    46 1   
    47    27    47 1   
    48    28    30 1   
    49    28    31 1   
    50    28    32 1   
@<TRIPOS>SUBSTRUCTURE
     1 276         1 TEMP              0 ****  ****    0 ROOT
