@<TRIPOS>MOLECULE
277
   53    54     1     0     0
SMALL
No Charge or Current Charge


@<TRIPOS>ATOM
      1 C1          -0.7300    -3.7340    -1.3290 c6         1 277      -0.085900
      2 C2           0.7520    -3.3050    -1.1840 c6         1 277      -0.068900
      3 C3           0.8950    -2.0480    -0.2690 c6         1 277      -0.053700
      4 C4           0.0160    -0.8860    -0.8250 c6         1 277      -0.068900
      5 C5          -1.4670    -1.3130    -0.9570 c6         1 277      -0.085900
      6 C6          -1.6050    -2.5670    -1.8610 c6         1 277       0.102700
      7 C15          2.3930    -1.6160    -0.0040 c3         1 277      -0.043700
      8 C17          3.2210    -2.6610     0.8310 c3         1 277       0.099500
      9 C18          4.7320    -2.2240     0.9990 c          1 277       0.563100
     10 N19          5.7430    -2.9080     0.2840 n          1 277      -0.412800
     11 N20         -3.0300    -2.9720    -2.0530 n          1 277      -0.410800
     12 C22         -3.6310    -2.9740    -3.3380 c          1 277       0.604100
     13 C23         -3.8140    -3.3860    -0.8600 c3         1 277       0.089300
     14 C27         -5.0990    -3.3960    -3.4750 c3         1 277      -0.177100
     15 O31         -3.0020    -2.6440    -4.3350 o          1 277      -0.610100
     16 O32          5.0390    -1.3260     1.7780 o          1 277      -0.613100
     17 N33          2.5440    -2.9560     2.1440 n8         1 277      -0.992200
     18 C35          3.1410    -1.1920    -1.3040 c3         1 277      -0.097100
     19 C42          5.4990    -3.9810    -0.7130 c5         1 277       0.073000
     20 C43          6.8800    -4.1150    -1.4150 c5         1 277       0.179300
     21 C44          7.8590    -3.7710    -0.2660 c5         1 277      -0.126400
     22 C45          7.1720    -2.5500     0.4000 c5         1 277       0.101000
     23 F52          7.0000    -3.1890    -2.4560 f          1 277      -0.261000
     24 H11         -0.7990    -4.5900    -2.0130 hc         1 277       0.043950
     25 H12         -1.1000    -4.0820    -0.3560 hc         1 277       0.043950
     26 H21          1.3250    -4.1470    -0.7750 hc         1 277       0.041950
     27 H22          1.1660    -3.1000    -2.1800 hc         1 277       0.041950
     28 H3           0.4750    -2.3070     0.7120 hc         1 277       0.066700
     29 H41          0.3760    -0.5640    -1.8110 hc         1 277       0.041950
     30 H42          0.0870    -0.0110    -0.1640 hc         1 277       0.041950
     31 H51         -1.8780    -1.5070     0.0430 hc         1 277       0.043950
     32 H52         -2.0520    -0.4850    -1.3800 hc         1 277       0.043950
     33 H6          -1.1820    -2.2880    -2.8370 h1         1 277       0.087700
     34 H15          2.3550    -0.7110     0.6150 hc         1 277       0.063700
     35 H17          3.2160    -3.6030     0.2720 h1         1 277       0.062700
     36 H231        -4.1660    -4.4170    -0.9840 h1         1 277       0.036700
     37 H232        -4.6750    -2.7190    -0.7310 h1         1 277       0.036700
     38 H233        -3.2040    -3.3390     0.0490 h1         1 277       0.036700
     39 H271        -5.4510    -3.3520    -4.5120 hc         1 277       0.058700
     40 H272        -5.2290    -4.4000    -3.0560 hc         1 277       0.058700
     41 H273        -5.7190    -2.7760    -2.8190 hc         1 277       0.058700
     42 H331         3.0690    -3.6870     2.6400 hn         1 277       0.407500
     43 H332         2.6540    -2.1390     2.7570 hn         1 277       0.407500
     44 H351         4.1350    -0.7860    -1.0850 hc         1 277       0.038033
     45 H352         2.6000    -0.4030    -1.8370 hc         1 277       0.038033
     46 H353         3.2650    -2.0390    -1.9880 hc         1 277       0.038033
     47 H421         4.7120    -3.7210    -1.4320 h1         1 277       0.060200
     48 H422         5.2180    -4.9170    -0.2130 h1         1 277       0.060200
     49 H43          7.0440    -5.1180    -1.8320 h1         1 277       0.071700
     50 H441         8.8700    -3.5430    -0.6220 hc         1 277       0.067700
     51 H442         7.9400    -4.6070     0.4390 hc         1 277       0.067700
     52 H451         7.4900    -2.4210     1.4440 h1         1 277       0.064200
     53 H452         7.3830    -1.6200    -0.1450 h1         1 277       0.064200
@<TRIPOS>BOND
     1     1     2 1   
     2     1     6 1   
     3     1    24 1   
     4     1    25 1   
     5     2     3 1   
     6     2    26 1   
     7     2    27 1   
     8     3     4 1   
     9     3     7 1   
    10     3    28 1   
    11     4     5 1   
    12     4    29 1   
    13     4    30 1   
    14     5     6 1   
    15     5    31 1   
    16     5    32 1   
    17     6    11 1   
    18     6    33 1   
    19     7     8 1   
    20     7    18 1   
    21     7    34 1   
    22     8     9 1   
    23     8    17 1   
    24     8    35 1   
    25     9    10 1   
    26     9    16 2   
    27    10    19 1   
    28    10    22 1   
    29    11    12 1   
    30    11    13 1   
    31    12    14 1   
    32    12    15 2   
    33    13    36 1   
    34    13    37 1   
    35    13    38 1   
    36    14    39 1   
    37    14    40 1   
    38    14    41 1   
    39    17    42 1   
    40    17    43 1   
    41    18    44 1   
    42    18    45 1   
    43    18    46 1   
    44    19    20 1   
    45    19    47 1   
    46    19    48 1   
    47    20    21 1   
    48    20    23 1   
    49    20    49 1   
    50    21    22 1   
    51    21    50 1   
    52    21    51 1   
    53    22    52 1   
    54    22    53 1   
@<TRIPOS>SUBSTRUCTURE
     1 277         1 TEMP              0 ****  ****    0 ROOT
