@<TRIPOS>MOLECULE
277
   53    54     1     0     0
SMALL
bcc


@<TRIPOS>ATOM
      1 C1          -0.7750    -3.7600    -1.2800 c6         1 277      -0.085900
      2 C2           0.7030    -3.3900    -1.1880 c6         1 277      -0.068900
      3 C3           0.9170    -2.1340    -0.3440 c6         1 277      -0.053700
      4 C4           0.0880    -0.9800    -0.9070 c6         1 277      -0.068900
      5 C5          -1.3930    -1.3380    -0.9870 c6         1 277      -0.085900
      6 C6          -1.5940    -2.5950    -1.8310 c6         1 277       0.102700
      7 C15          2.3940    -1.7410    -0.1670 c3         1 277      -0.043700
      8 C17          3.1910    -2.8120     0.6040 c3         1 277       0.099500
      9 C18          4.6010    -2.2840     0.8890 c          1 277       0.630100
     10 N19          5.6480    -2.8640     0.2820 n          1 277      -0.479800
     11 N20         -3.0060    -2.9340    -1.9850 n          1 277      -0.477800
     12 C22         -3.5870    -2.9020    -3.2050 c          1 277       0.671100
     13 C23         -3.7750    -3.2540    -0.7960 c3         1 277       0.089300
     14 C27         -5.0590    -3.2380    -3.2540 c3         1 277      -0.177100
     15 O31         -2.9730    -2.6230    -4.2300 o          1 277      -0.610100
     16 O32          4.7560    -1.3650     1.6880 o          1 277      -0.613100
     17 N33          2.5230    -3.1750     1.8410 n8         1 277      -0.881800
     18 C35          3.0830    -1.4040    -1.4890 c3         1 277      -0.097100
     19 C42          5.6010    -3.9130    -0.7320 c5         1 277       0.073000
     20 C43          7.0180    -3.9540    -1.2660 c5         1 277       0.160600
     21 C44          7.8580    -3.5380    -0.0800 c5         1 277      -0.126400
     22 C45          7.0170    -2.4560     0.5880 c5         1 277       0.101000
     23 F52          7.1500    -2.9970    -2.2780 f          1 277      -0.242300
     24 H11         -0.9040    -4.6350    -1.9230 hc         1 277       0.043950
     25 H12         -1.1330    -4.0390    -0.2840 hc         1 277       0.043950
     26 H21          1.2520    -4.2360    -0.7680 hc         1 277       0.041950
     27 H22          1.0950    -3.2360    -2.2000 hc         1 277       0.041950
     28 H3           0.5280    -2.3500     0.6580 hc         1 277       0.066700
     29 H41          0.4390    -0.7120    -1.9090 hc         1 277       0.041950
     30 H42          0.2150    -0.0900    -0.2830 hc         1 277       0.041950
     31 H51         -1.7810    -1.4920     0.0260 hc         1 277       0.043950
     32 H52         -1.9600    -0.5100    -1.4220 hc         1 277       0.043950
     33 H6          -1.2260    -2.3790    -2.8350 h1         1 277       0.087700
     34 H15          2.4050    -0.8360     0.4540 hc         1 277       0.063700
     35 H17          3.2380    -3.7170    -0.0060 h1         1 277       0.062700
     36 H231        -4.2420    -4.2370    -0.8640 h1         1 277       0.036700
     37 H232        -4.5540    -2.5170    -0.5960 h1         1 277       0.036700
     38 H233        -3.1190    -3.2740     0.0700 h1         1 277       0.036700
     39 H271        -5.4170    -3.1450    -4.2770 hc         1 277       0.058700
     40 H272        -5.2480    -4.2570    -2.9130 hc         1 277       0.058700
     41 H273        -5.6470    -2.5740    -2.6190 hc         1 277       0.058700
     42 H331         3.0170    -3.9360     2.2910 hn         1 277       0.352300
     43 H332         2.5580    -2.3940     2.4860 hn         1 277       0.352300
     44 H351         4.1120    -1.0710    -1.3440 hc         1 277       0.038033
     45 H352         2.5690    -0.5970    -2.0100 hc         1 277       0.038033
     46 H353         3.1110    -2.2610    -2.1630 hc         1 277       0.038033
     47 H421         4.8890    -3.6950    -1.5280 h1         1 277       0.060200
     48 H422         5.3380    -4.8810    -0.3000 h1         1 277       0.060200
     49 H43          7.2800    -4.9240    -1.6900 h1         1 277       0.071700
     50 H441         8.8540    -3.1980    -0.3620 hc         1 277       0.067700
     51 H442         7.9730    -4.3960     0.5850 hc         1 277       0.067700
     52 H451         7.1790    -2.4080     1.6640 h1         1 277       0.064200
     53 H452         7.2290    -1.4660     0.1770 h1         1 277       0.064200
@<TRIPOS>BOND
     1     1     2 1   
     2     1     6 1   
     3     1    24 1   
     4     1    25 1   
     5     2     3 1   
     6     2    26 1   
     7     2    27 1   
     8     3     4 1   
     9     3     7 1   
    10     3    28 1   
    11     4     5 1   
    12     4    29 1   
    13     4    30 1   
    14     5     6 1   
    15     5    31 1   
    16     5    32 1   
    17     6    11 1   
    18     6    33 1   
    19     7     8 1   
    20     7    18 1   
    21     7    34 1   
    22     8     9 1   
    23     8    17 1   
    24     8    35 1   
    25     9    10 1   
    26     9    16 2   
    27    10    19 1   
    28    10    22 1   
    29    11    12 1   
    30    11    13 1   
    31    12    14 1   
    32    12    15 2   
    33    13    36 1   
    34    13    37 1   
    35    13    38 1   
    36    14    39 1   
    37    14    40 1   
    38    14    41 1   
    39    17    42 1   
    40    17    43 1   
    41    18    44 1   
    42    18    45 1   
    43    18    46 1   
    44    19    20 1   
    45    19    47 1   
    46    19    48 1   
    47    20    21 1   
    48    20    23 1   
    49    20    49 1   
    50    21    22 1   
    51    21    50 1   
    52    21    51 1   
    53    22    52 1   
    54    22    53 1   
@<TRIPOS>SUBSTRUCTURE
     1 277         1 TEMP              0 ****  ****    0 ROOT
