@<TRIPOS>MOLECULE
278
   18    18     1     0     0
SMALL
No Charge or Current Charge


@<TRIPOS>ATOM
      1 C1           0.2150     2.1700    -0.1320 c3         1 278       0.055900
      2 N2           0.6230     0.7610    -0.0300 na         1 278       0.025000
      3 C3           1.9180     0.3340     0.2800 cc         1 278      -0.194000
      4 C4           1.8810    -1.0320     0.2730 cd         1 278      -0.181000
      5 C5           0.5750    -1.4500    -0.0400 cd         1 278      -0.154000
      6 C6          -0.2150    -0.3470    -0.2280 cc         1 278      -0.175300
      7 C7          -1.6760    -0.2860    -0.5920 c3         1 278       0.217100
      8 N8          -2.5140    -0.4840     0.6010 n8         1 278      -0.982200
      9 H11         -0.0880     2.3900    -1.1630 h1         1 278       0.046033
     10 H12         -0.6270     2.3590     0.5440 h1         1 278       0.046033
     11 H13          1.0520     2.8220     0.1440 h1         1 278       0.046033
     12 H3           2.7330     1.0220     0.4740 h4         1 278       0.140000
     13 H4           2.7250    -1.6870     0.4750 ha         1 278       0.131000
     14 H5           0.2430    -2.4810    -0.1190 ha         1 278       0.131000
     15 H71         -1.9180     0.6860    -1.0440 h1         1 278       0.036200
     16 H72         -1.9070    -1.0730    -1.3240 h1         1 278       0.036200
     17 H81         -2.3210     0.2760     1.2630 hn         1 278       0.387500
     18 H82         -3.4970    -0.3440     0.3420 hn         1 278       0.387500
@<TRIPOS>BOND
     1     1     2 1   
     2     1     9 1   
     3     1    10 1   
     4     1    11 1   
     5     2     3 1   
     6     2     6 1   
     7     3     4 2   
     8     3    12 1   
     9     4     5 1   
    10     4    13 1   
    11     5     6 2   
    12     5    14 1   
    13     6     7 1   
    14     7     8 1   
    15     7    15 1   
    16     7    16 1   
    17     8    17 1   
    18     8    18 1   
@<TRIPOS>SUBSTRUCTURE
     1 278         1 TEMP              0 ****  ****    0 ROOT
