@<TRIPOS>MOLECULE
278
   18    18     1     0     0
SMALL
bcc


@<TRIPOS>ATOM
      1 C1           0.1210     2.0730    -0.0150 c3         1 278       0.026600
      2 N2           0.5840     0.7050     0.0100 na         1 278      -0.047100
      3 C3           1.8600     0.3220     0.2970 cc         1 278      -0.161300
      4 C4           1.9300    -1.0470     0.2200 cd         1 278      -0.199000
      5 C5           0.6350    -1.5030    -0.1280 cd         1 278      -0.172000
      6 C6          -0.1780    -0.4010    -0.2520 cc         1 278      -0.124600
      7 C7          -1.6310    -0.3230    -0.5790 c3         1 278       0.217100
      8 N8          -2.4610    -0.1700     0.6160 n8         1 278      -0.871800
      9 H11         -0.3390     2.3140    -0.9720 h1         1 278       0.046033
     10 H12         -0.6010     2.2680     0.7780 h1         1 278       0.046033
     11 H13          0.9680     2.7380     0.1300 h1         1 278       0.046033
     12 H3           2.6180     1.0530     0.5270 h4         1 278       0.158000
     13 H4           2.8110    -1.6460     0.3910 ha         1 278       0.149000
     14 H5           0.3240    -2.5260    -0.2760 ha         1 278       0.149000
     15 H71         -1.8010     0.4610    -1.3310 h1         1 278       0.036200
     16 H72         -1.9090    -1.2630    -1.0580 h1         1 278       0.036200
     17 H81         -2.2950     0.7370     1.0340 hn         1 278       0.332300
     18 H82         -3.4330    -0.1540     0.3300 hn         1 278       0.332300
@<TRIPOS>BOND
     1     1     2 1   
     2     1     9 1   
     3     1    10 1   
     4     1    11 1   
     5     2     3 1   
     6     2     6 1   
     7     3     4 2   
     8     3    12 1   
     9     4     5 1   
    10     4    13 1   
    11     5     6 2   
    12     5    14 1   
    13     6     7 1   
    14     7     8 1   
    15     7    15 1   
    16     7    16 1   
    17     8    17 1   
    18     8    18 1   
@<TRIPOS>SUBSTRUCTURE
     1 278         1 TEMP              0 ****  ****    0 ROOT
