@<TRIPOS>MOLECULE
279
   50    52     1     0     0
SMALL
bcc


@<TRIPOS>ATOM
      1 C1          -4.4980     1.7270    -0.0410 ca         1 279      -0.116000
      2 C2          -3.5400     2.7130    -0.2090 ca         1 279      -0.118000
      3 C3          -2.7440     0.0930     0.1710 ca         1 279      -0.074000
      4 C4           3.6110    -1.3570    -0.6330 cc         1 279      -0.095100
      5 C5          -4.0980     0.4090     0.1440 ca         1 279      -0.140600
      6 C6           3.8990    -0.0560    -0.2430 cd         1 279      -0.221200
      7 C7          -2.1830     2.4200    -0.2160 ca         1 279      -0.093300
      8 C8           2.6830     0.6390    -0.0600 cd         1 279      -0.030200
      9 C9          -1.7900     1.0840    -0.0290 ca         1 279       0.146600
     10 C10          1.6790    -0.2810    -0.3390 cc         1 279      -0.290600
     11 C11          0.3350    -2.4540    -1.0750 cc         1 279       0.667900
     12 C12          0.2510    -0.2950    -0.3650 cc         1 279       0.781200
     13 C13         -5.0710    -0.7010     0.3600 c          1 279       0.679700
     14 C15         -1.1720     3.5110    -0.4050 c3         1 279      -0.058800
     15 C16          2.4990     2.0570     0.3750 c3         1 279      -0.041900
     16 C17          8.4410    -1.2640     0.6600 c3         1 279      -0.111100
     17 C19          7.5990    -0.0240     0.4300 c3         1 279       0.104000
     18 N20          1.6200    -2.5890    -1.0740 nd         1 279      -0.559800
     19 N21         -0.3970    -1.3730    -0.7390 nd         1 279      -0.816000
     20 N22          2.2800    -1.4770    -0.6920 na         1 279       0.240200
     21 N23         -0.4120     0.8250    -0.0120 nu         1 279      -0.732300
     22 N24          6.2020    -0.3820     0.2810 ns         1 279      -0.574900
     23 N25         -6.2660    -0.5050    -0.2420 ns         1 279      -0.448400
     24 O26         -4.8150    -1.6820     1.0340 o          1 279      -0.556100
     25 O27          5.5250     1.6670    -0.3730 o          1 279      -0.608100
     26 O28         -7.1830    -1.5110    -0.2120 os         1 279      -0.204900
     27 H1          -5.5440     2.0040    -0.0300 ha         1 279       0.138000
     28 H2          -3.8550     3.7400    -0.3430 ha         1 279       0.136000
     29 H3          -2.4370    -0.9260     0.3410 ha         1 279       0.185000
     30 H4           4.2550    -2.1790    -0.9020 h4         1 279       0.189000
     31 H11         -0.2200    -3.3310    -1.3840 h5         1 279       0.061100
     32 H151        -0.5960     3.6920     0.5070 hc         1 279       0.048367
     33 H152        -0.4630     3.2810    -1.2040 hc         1 279       0.048367
     34 H153        -1.6590     4.4500    -0.6600 hc         1 279       0.048367
     35 H161         2.0790     2.6720    -0.4250 hc         1 279       0.052033
     36 H162         1.8460     2.1350     1.2470 hc         1 279       0.052033
     37 H163         3.4460     2.5100     0.6510 hc         1 279       0.052033
     38 H171         8.1450    -1.7840     1.5730 hc         1 279       0.041700
     39 H172         8.3550    -1.9600    -0.1740 hc         1 279       0.041700
     40 H173         9.4890    -0.9880     0.7620 hc         1 279       0.041700
     41 H181        -7.8320    -1.1280     1.7360 h1         1 279       0.042700
     42 H182        -8.7650    -0.3200     0.4500 h1         1 279       0.042700
     43 H183        -8.8980    -2.0770     0.6790 h1         1 279       0.042700
     44 H191         7.7270     0.6770     1.2600 h1         1 279       0.050700
     45 H192         7.9330     0.4900    -0.4720 h1         1 279       0.050700
     46 H23          0.1630     1.6130     0.2360 hn         1 279       0.456800
     47 H24          5.9080    -1.2770     0.6380 hn         1 279       0.314500
     48 H25         -6.3690     0.1240    -1.0270 hn         1 279       0.331500
     49 C14          5.2650     0.4970    -0.1140 c          1 279       0.705300
     50 C18         -8.2190    -1.2270     0.7200 c3         1 279       0.101700
@<TRIPOS>BOND
     1     1     2 ar  
     2     1     5 ar  
     3     1    27 1   
     4     2     7 ar  
     5     2    28 1   
     6     3     5 ar  
     7     3     9 ar  
     8     3    29 1   
     9     4     6 2   
    10     4    20 1   
    11     4    30 1   
    12     5    13 1   
    13     6     8 1   
    14     6    49 1   
    15     7     9 ar  
    16     7    14 1   
    17     8    10 2   
    18     8    15 1   
    19     9    21 1   
    20    10    12 1   
    21    10    20 1   
    22    11    18 2   
    23    11    19 1   
    24    11    31 1   
    25    12    19 2   
    26    12    21 1   
    27    13    23 1   
    28    13    24 2   
    29    14    32 1   
    30    14    33 1   
    31    14    34 1   
    32    15    35 1   
    33    15    36 1   
    34    15    37 1   
    35    16    17 1   
    36    16    38 1   
    37    16    39 1   
    38    16    40 1   
    39    17    22 1   
    40    17    44 1   
    41    17    45 1   
    42    18    20 1   
    43    21    46 1   
    44    22    47 1   
    45    22    49 1   
    46    23    26 1   
    47    23    48 1   
    48    25    49 2   
    49    26    50 1   
    50    41    50 1   
    51    42    50 1   
    52    43    50 1   
@<TRIPOS>SUBSTRUCTURE
     1 279         1 TEMP              0 ****  ****    0 ROOT
