@<TRIPOS>MOLECULE
279
   50    52     1     0     0
SMALL
No Charge or Current Charge


@<TRIPOS>ATOM
      1 C1          -4.5110     1.7520    -0.5980 ca         1 279      -0.098000
      2 C2          -3.5060     2.7000    -0.8480 ca         1 279      -0.100000
      3 C3          -2.8060     0.1090    -0.0600 ca         1 279      -0.056000
      4 C4           3.7280    -1.3300    -0.3880 cc         1 279      -0.145100
      5 C5          -4.1740     0.4380    -0.1960 ca         1 279      -0.140600
      6 C6           3.8620    -0.0700     0.1790 cd         1 279      -0.221200
      7 C7          -2.1460     2.3640    -0.7120 ca         1 279      -0.093300
      8 C8           2.5620     0.5240     0.2820 cd         1 279      -0.030200
      9 C9          -1.7920     1.0510    -0.3240 ca         1 279       0.285000
     10 C10          1.6890    -0.3930    -0.2600 cc         1 279      -0.276000
     11 C11          0.4890    -2.4920    -1.3590 cc         1 279       0.141900
     12 C12          0.2880    -0.4020    -0.4840 cc         1 279       0.452900
     13 C13         -5.2240    -0.6160     0.0980 c          1 279       0.612700
     14 C15         -1.0830     3.4270    -0.9930 c3         1 279      -0.058800
     15 C16          2.2310     1.8810     0.8710 c3         1 279      -0.041900
     16 C17          8.5940    -1.1480     0.3410 c3         1 279      -0.111100
     17 C19          7.6420     0.0070     0.6870 c3         1 279       0.104000
     18 N20          1.8180    -2.6360    -1.2200 nd         1 279      -0.296800
     19 N21         -0.2830    -1.4520    -1.0330 nd         1 279      -0.290000
     20 N22          2.3800    -1.5140    -0.6500 na         1 279       0.290900
     21 N23         -0.4420     0.7120    -0.1710 nu         1 279      -0.925900
     22 N24          6.2530    -0.3320     0.3780 ns         1 279      -0.507900
     23 N25         -6.5490    -0.2380    -0.0710 ns         1 279      -0.381400
     24 O26         -4.9200    -1.7440     0.4710 o          1 279      -0.556100
     25 O27          5.3410     1.6300     1.0500 o          1 279      -0.608100
     26 O28         -7.5790    -1.2270     0.1140 os         1 279      -0.228100
     27 H1          -5.5470     2.0600    -0.7150 ha         1 279       0.120000
     28 H2          -3.7910     3.7060    -1.1500 ha         1 279       0.118000
     29 H3          -2.5230    -0.8870     0.2670 ha         1 279       0.167000
     30 H4           4.4450    -2.1010    -0.6390 h4         1 279       0.239000
     31 H11         -0.0270    -3.3350    -1.8020 h5         1 279       0.061100
     32 H151        -0.5280     3.6810    -0.0820 hc         1 279       0.048367
     33 H152        -0.3630     3.0800    -1.7440 hc         1 279       0.048367
     34 H153        -1.5260     4.3540    -1.3740 hc         1 279       0.048367
     35 H161         2.0920     2.6300     0.0820 hc         1 279       0.052033
     36 H162         1.3190     1.8430     1.4770 hc         1 279       0.052033
     37 H163         3.0100     2.2470     1.5440 hc         1 279       0.052033
     38 H171         8.3370    -2.0480     0.9140 hc         1 279       0.041700
     39 H172         8.5420    -1.3870    -0.7280 hc         1 279       0.041700
     40 H173         9.6280    -0.8720     0.5810 hc         1 279       0.041700
     41 H181        -7.3450    -1.3710     2.1920 h1         1 279       0.042700
     42 H182        -8.5650    -0.1930     1.6470 h1         1 279       0.042700
     43 H183        -8.9080    -1.9350     1.5620 h1         1 279       0.042700
     44 H191         7.7220     0.2400     1.7570 h1         1 279       0.050700
     45 H192         7.9260     0.9010     0.1160 h1         1 279       0.050700
     46 H23          0.1680     1.5100    -0.0370 hn         1 279       0.512000
     47 H24          6.0530    -1.2430    -0.0080 hn         1 279       0.314500
     48 H25         -6.8330     0.6670    -0.4300 hn         1 279       0.331500
     49 C14          5.1840     0.5110     0.5830 c          1 279       0.638300
     50 C18         -8.1240    -1.1770     1.4440 c3         1 279       0.124900
@<TRIPOS>BOND
     1     1     2 ar  
     2     1     5 ar  
     3     1    27 1   
     4     2     7 ar  
     5     2    28 1   
     6     3     5 ar  
     7     3     9 ar  
     8     3    29 1   
     9     4     6 2   
    10     4    20 1   
    11     4    30 1   
    12     5    13 1   
    13     6     8 1   
    14     6    49 1   
    15     7     9 ar  
    16     7    14 1   
    17     8    10 2   
    18     8    15 1   
    19     9    21 1   
    20    10    12 1   
    21    10    20 1   
    22    11    18 2   
    23    11    19 1   
    24    11    31 1   
    25    12    19 2   
    26    12    21 1   
    27    13    23 1   
    28    13    24 2   
    29    14    32 1   
    30    14    33 1   
    31    14    34 1   
    32    15    35 1   
    33    15    36 1   
    34    15    37 1   
    35    16    17 1   
    36    16    38 1   
    37    16    39 1   
    38    16    40 1   
    39    17    22 1   
    40    17    44 1   
    41    17    45 1   
    42    18    20 1   
    43    21    46 1   
    44    22    47 1   
    45    22    49 1   
    46    23    26 1   
    47    23    48 1   
    48    25    49 2   
    49    26    50 1   
    50    41    50 1   
    51    42    50 1   
    52    43    50 1   
@<TRIPOS>SUBSTRUCTURE
     1 279         1 TEMP              0 ****  ****    0 ROOT
