@<TRIPOS>MOLECULE
27B
   20    21     1     0     0
SMALL
No Charge or Current Charge


@<TRIPOS>ATOM
      1 O14          2.9550     0.8550    -0.9650 o          1 27B      -0.698000
      2 C12          2.3500     1.2590     0.0190 c          1 27B       0.718600
      3 O13          2.8930     1.7870     0.9800 o          1 27B      -0.698000
      4 C11          0.8450     1.1940     0.0090 ca         1 27B      -0.081600
      5 C2           0.1550    -0.0420     0.0650 ca         1 27B      -0.007900
      6 Br1          1.1750    -1.6770     0.1980 br         1 27B      -0.123100
      7 C10          0.1150     2.3970    -0.0510 ca         1 27B      -0.067000
      8 C9          -1.2860     2.3790    -0.0680 ca         1 27B      -0.136000
      9 C8          -1.9790     1.1580    -0.0210 ca         1 27B      -0.049000
     10 C3          -1.2650    -0.0640     0.0480 ca         1 27B      -0.014000
     11 C7          -3.3870     1.1620    -0.0390 ca         1 27B      -0.100000
     12 C6          -4.0970    -0.0470     0.0120 ca         1 27B      -0.136000
     13 C5          -3.4020    -1.2630     0.0820 ca         1 27B      -0.132000
     14 C4          -1.9970    -1.2750     0.1000 ca         1 27B      -0.093000
     15 H2           0.6430     3.3480    -0.0900 ha         1 27B       0.123000
     16 H3          -1.8320     3.3190    -0.1190 ha         1 27B       0.093000
     17 H4          -3.9320     2.1010    -0.0920 ha         1 27B       0.096000
     18 H5          -5.1850    -0.0400    -0.0020 ha         1 27B       0.093000
     19 H6          -3.9520    -2.2000     0.1220 ha         1 27B       0.093000
     20 H7          -1.4960    -2.2370     0.1540 ha         1 27B       0.117000
@<TRIPOS>BOND
     1     1     2 1   
     2     2     3 1   
     3     2     4 1   
     4     4     5 ar  
     5     4     7 ar  
     6     5     6 1   
     7     5    10 ar  
     8     7     8 ar  
     9     7    15 1   
    10     8     9 ar  
    11     8    16 1   
    12     9    10 ar  
    13     9    11 ar  
    14    10    14 ar  
    15    11    12 ar  
    16    11    17 1   
    17    12    13 ar  
    18    12    18 1   
    19    13    14 ar  
    20    13    19 1   
    21    14    20 1   
@<TRIPOS>SUBSTRUCTURE
     1 27B         1 TEMP              0 ****  ****    0 ROOT
