@<TRIPOS>MOLECULE
27B
   20    21     1     0     0
SMALL
abcg2


@<TRIPOS>ATOM
      1 O14          2.9660     0.7280    -0.9310 o          1 27B      -0.698000
      2 C12          2.3690     1.2850     0.0010 c          1 27B       0.718600
      3 O13          2.8430     1.9730     0.9210 o          1 27B      -0.698000
      4 C11          0.8470     1.1630     0.0090 ca         1 27B      -0.081600
      5 C2           0.1560    -0.0190     0.0460 ca         1 27B      -0.007900
      6 BR1          1.1340    -1.6430     0.1510 br         1 27B      -0.123100
      7 C10          0.1040     2.3690    -0.0180 ca         1 27B      -0.067000
      8 C9          -1.2580     2.3660    -0.0560 ca         1 27B      -0.136000
      9 C8          -1.9760     1.1500    -0.0220 ca         1 27B      -0.049000
     10 C3          -1.2670    -0.0820     0.0470 ca         1 27B      -0.014000
     11 C7          -3.3890     1.1420    -0.0440 ca         1 27B      -0.100000
     12 C6          -4.0870    -0.0330     0.0050 ca         1 27B      -0.136000
     13 C5          -3.3900    -1.2530     0.0810 ca         1 27B      -0.132000
     14 C4          -2.0210    -1.2800     0.1030 ca         1 27B      -0.093000
     15 H2           0.6420     3.3080    -0.0250 ha         1 27B       0.123000
     16 H3          -1.8080     3.2990    -0.1000 ha         1 27B       0.093000
     17 H4          -3.9120     2.0890    -0.1010 ha         1 27B       0.096000
     18 H5          -5.1690    -0.0280    -0.0110 ha         1 27B       0.093000
     19 H6          -3.9420    -2.1830     0.1240 ha         1 27B       0.093000
     20 H7          -1.5220    -2.2360     0.1630 ha         1 27B       0.117000
@<TRIPOS>BOND
     1     1     2 1   
     2     2     3 1   
     3     2     4 1   
     4     4     5 ar  
     5     4     7 ar  
     6     5     6 1   
     7     5    10 ar  
     8     7     8 ar  
     9     7    15 1   
    10     8     9 ar  
    11     8    16 1   
    12     9    10 ar  
    13     9    11 ar  
    14    10    14 ar  
    15    11    12 ar  
    16    11    17 1   
    17    12    13 ar  
    18    12    18 1   
    19    13    14 ar  
    20    13    19 1   
    21    14    20 1   
@<TRIPOS>SUBSTRUCTURE
     1 27B         1 TEMP              0 ****  ****    0 ROOT
