@<TRIPOS>MOLECULE
27C
   35    35     1     0     0
SMALL
No Charge or Current Charge


@<TRIPOS>ATOM
      1 O1          -5.7410     9.5320    52.5080 oh         1 27C      -0.671000
      2 P           -5.7030    10.5490    56.8270 p5         1 27C       1.391800
      3 C1          -6.9500     8.8100    52.6790 c5         1 27C       0.351300
      4 C2          -8.2260     9.6220    52.2310 c5         1 27C       0.165300
      5 F2          -9.0140     8.8950    51.3270 f          1 27C      -0.263000
      6 C3          -8.9970     9.8530    53.5800 c5         1 27C       0.118300
      7 O3          -9.7200    11.0950    53.6260 oh         1 27C      -0.714000
      8 C4          -7.7990     9.8070    54.5610 c5         1 27C       0.090300
      9 O4          -7.1130     8.6310    54.0840 os         1 27C      -0.446000
     10 C5          -8.1370     9.6850    56.0740 c3         1 27C       0.232600
     11 O5          -6.9450     9.5160    56.8740 os         1 27C      -0.583400
     12 C1C         -4.1430     8.7800    55.6350 c3         1 27C       0.230600
     13 C2C         -2.6590     9.1190    55.3610 c3         1 27C      -0.073400
     14 C3C         -2.0000    10.0610    56.3950 c3         1 27C      -0.072400
     15 C4C         -0.5070    10.3180    56.1110 c3         1 27C      -0.087100
     16 OP1         -4.8740    10.4510    58.0630 o          1 27C      -0.816000
     17 OP2         -6.1780    11.9450    56.6010 o          1 27C      -0.816000
     18 OP3         -4.9250     9.9770    55.5310 os         1 27C      -0.608400
     19 HO1         -5.4020     9.6290    53.4280 ho         1 27C       0.454000
     20 H1          -6.8910     7.8360    52.1750 h2         1 27C       0.066700
     21 H2          -7.9410    10.5680    51.7540 h1         1 27C       0.084700
     22 H3          -9.6730     9.0110    53.7840 h1         1 27C       0.051700
     23 HO3        -10.4850    11.0120    53.0070 ho         1 27C       0.519000
     24 H4          -7.1710    10.6960    54.4130 h1         1 27C       0.090700
     25 H51         -8.6830    10.5840    56.3890 h1         1 27C       0.032700
     26 H52         -8.8070     8.8270    56.2160 h1         1 27C       0.032700
     27 H1C         -4.2370     8.3120    56.6240 h1         1 27C       0.021700
     28 H1CA        -4.4820     8.0470    54.8920 h1         1 27C       0.021700
     29 H2C         -2.0950     8.1790    55.3320 hc         1 27C       0.021200
     30 H2CA        -2.5740     9.5620    54.3610 hc         1 27C       0.021200
     31 H3C         -2.5270    11.0230    56.4040 hc         1 27C       0.048700
     32 H3CA        -2.1020     9.6280    57.3980 hc         1 27C       0.048700
     33 H4C         -0.0850    10.9910    56.8670 hc         1 27C       0.018033
     34 H4CA         0.0590     9.3800    56.1320 hc         1 27C       0.018033
     35 H4CB        -0.3750    10.7830    55.1260 hc         1 27C       0.018033
@<TRIPOS>BOND
     1     1     3 1   
     2     1    19 1   
     3     2    11 1   
     4     2    16 1   
     5     2    17 1   
     6     2    18 1   
     7     3     4 1   
     8     3     9 1   
     9     3    20 1   
    10     4     5 1   
    11     4     6 1   
    12     4    21 1   
    13     6     7 1   
    14     6     8 1   
    15     6    22 1   
    16     7    23 1   
    17     8     9 1   
    18     8    10 1   
    19     8    24 1   
    20    10    11 1   
    21    10    25 1   
    22    10    26 1   
    23    12    13 1   
    24    12    18 1   
    25    12    27 1   
    26    12    28 1   
    27    13    14 1   
    28    13    29 1   
    29    13    30 1   
    30    14    15 1   
    31    14    31 1   
    32    14    32 1   
    33    15    33 1   
    34    15    34 1   
    35    15    35 1   
@<TRIPOS>SUBSTRUCTURE
     1 27C         1 TEMP              0 ****  ****    0 ROOT
