@<TRIPOS>MOLECULE
27D
   50    54     1     0     0
SMALL
No Charge or Current Charge


@<TRIPOS>ATOM
      1 C01         -6.7540     0.8270     2.5480 c3         1 27D      -0.146400
      2 C02         -6.6050     0.5980     1.0570 ca         1 27D       0.366300
      3 C03         -7.3500     1.3440     0.1240 ca         1 27D      -0.157000
      4 C04         -7.1730     1.0990    -1.2460 ca         1 27D      -0.067000
      5 C05         -6.2490     0.1120    -1.6260 ca         1 27D      -0.152000
      6 C06         -5.5410    -0.5860    -0.6300 ca         1 27D       0.359300
      7 C07         -4.5350    -1.6530    -0.9860 c3         1 27D      -0.205700
      8 C08         -3.2160    -0.9740    -1.3500 c          1 27D       0.624100
      9 O           -3.0660    -0.5530    -2.4920 o          1 27D      -0.523100
     10 N01         -2.1920    -0.8510    -0.3640 n          1 27D      -0.096600
     11 C09         -2.3410    -1.0690     1.0180 cc         1 27D      -0.135400
     12 C10         -1.1500    -0.7980     1.6560 cd         1 27D      -0.187200
     13 C11         -0.1940    -0.3780     0.6440 ca         1 27D      -0.150800
     14 C12         -0.8410    -0.4080    -0.5800 ca         1 27D      -0.054000
     15 C13         -0.1620    -0.0470    -1.7570 ca         1 27D      -0.118000
     16 C14          1.1900     0.3500    -1.6570 ca         1 27D      -0.069000
     17 C15          1.8530     0.3760    -0.4050 ca         1 27D      -0.087800
     18 C16          3.2490     0.7930    -0.3410 cc         1 27D      -0.053400
     19 C17          3.6320     2.0840    -0.6560 cd         1 27D      -0.155100
     20 N02          5.0210     2.1920    -0.4170 na         1 27D      -0.178400
     21 C18          5.8880     3.3670    -0.5870 c3         1 27D       0.068900
     22 C19          5.4800     0.9570     0.0400 ca         1 27D       0.145500
     23 N03          6.7210     0.5570     0.3840 nb         1 27D      -0.230000
     24 C20          6.8460    -0.7380     0.7650 ca         1 27D       0.176900
     25 N04          5.8590    -1.6650     0.8230 nb         1 27D      -0.301000
     26 C21          4.6330    -1.2440     0.4790 ca         1 27D       0.427900
     27 N05          3.6570    -2.1840     0.4980 nv         1 27D      -1.055900
     28 C22          4.4190     0.0830     0.0910 ca         1 27D      -0.236800
     29 C            1.1460     0.0130     0.7650 ca         1 27D       0.221000
     30 F            1.7360     0.0550     1.9830 f          1 27D      -0.161000
     31 N           -5.7150    -0.3500     0.6890 nb         1 27D      -0.671000
     32 H1          -5.9040     1.3960     2.9400 hc         1 27D       0.053033
     33 H2          -7.6680     1.3870     2.7780 hc         1 27D       0.053033
     34 H3          -6.8040    -0.1240     3.0910 hc         1 27D       0.053033
     35 H4          -8.0530     2.1010     0.4610 ha         1 27D       0.124000
     36 H5          -7.7340     1.6580    -1.9930 ha         1 27D       0.121000
     37 H6          -6.0800    -0.1080    -2.6770 ha         1 27D       0.122000
     38 H7          -4.4100    -2.3450    -0.1480 hc         1 27D       0.083200
     39 H8          -4.9000    -2.2090    -1.8570 hc         1 27D       0.083200
     40 H9          -3.3030    -1.3740     1.4150 h4         1 27D       0.217000
     41 H10         -0.9720    -0.8670     2.7280 ha         1 27D       0.218000
     42 H11         -0.6470    -0.0680    -2.7290 ha         1 27D       0.149000
     43 H12          1.7310     0.6330    -2.5580 ha         1 27D       0.122000
     44 H13          3.0310     2.9200    -1.0020 h4         1 27D       0.219000
     45 H14          6.3430     3.6320     0.3760 h1         1 27D       0.054367
     46 H15          6.6800     3.1390    -1.3110 h1         1 27D       0.054367
     47 H16          5.2980     4.2160    -0.9530 h1         1 27D       0.054367
     48 H17          7.8440    -1.0700     1.0440 h5         1 27D       0.042100
     49 H18          3.9320    -3.1610     0.5430 hn         1 27D       0.490000
     50 H19          2.7810    -1.9710     0.0310 hn         1 27D       0.490000
@<TRIPOS>BOND
     1     1     2 1   
     2     1    32 1   
     3     1    33 1   
     4     1    34 1   
     5     2     3 ar  
     6     2    31 ar  
     7     3     4 ar  
     8     3    35 1   
     9     4     5 ar  
    10     4    36 1   
    11     5     6 ar  
    12     5    37 1   
    13     6     7 1   
    14     6    31 ar  
    15     7     8 1   
    16     7    38 1   
    17     7    39 1   
    18     8     9 2   
    19     8    10 1   
    20    10    11 1   
    21    10    14 1   
    22    11    12 2   
    23    11    40 1   
    24    12    13 1   
    25    12    41 1   
    26    13    14 ar  
    27    13    29 ar  
    28    14    15 ar  
    29    15    16 ar  
    30    15    42 1   
    31    16    17 ar  
    32    16    43 1   
    33    17    18 1   
    34    17    29 ar  
    35    18    19 2   
    36    18    28 1   
    37    19    20 1   
    38    19    44 1   
    39    20    21 1   
    40    20    22 1   
    41    21    45 1   
    42    21    46 1   
    43    21    47 1   
    44    22    23 ar  
    45    22    28 ar  
    46    23    24 ar  
    47    24    25 ar  
    48    24    48 1   
    49    25    26 ar  
    50    26    27 1   
    51    26    28 ar  
    52    27    49 1   
    53    27    50 1   
    54    29    30 1   
@<TRIPOS>SUBSTRUCTURE
     1 27D         1 TEMP              0 ****  ****    0 ROOT
