@<TRIPOS>MOLECULE
27D
   50    54     1     0     0
SMALL
abcg2


@<TRIPOS>ATOM
      1 C01         -7.8860     2.4050     0.7220 c3         1 27D      -0.146400
      2 C02         -7.3200     1.2170     0.0060 ca         1 27D       0.366300
      3 C03         -7.9100     0.7310    -1.1590 ca         1 27D      -0.157000
      4 C04         -7.3370    -0.3540    -1.7990 ca         1 27D      -0.067000
      5 C05         -6.1930    -0.9230    -1.2610 ca         1 27D      -0.152000
      6 C06         -5.6720    -0.3780    -0.0960 ca         1 27D       0.359300
      7 C07         -4.4350    -0.9520     0.5290 c3         1 27D      -0.205700
      8 C08         -3.1990    -0.2010     0.0860 c          1 27D       0.624100
      9 O           -3.2360     0.7380    -0.6690 o          1 27D      -0.523100
     10 N01         -1.9940    -0.6590     0.5990 n          1 27D      -0.096600
     11 C09         -1.8370    -1.7500     1.4530 cc         1 27D      -0.135400
     12 C10         -0.5320    -1.9380     1.7340 cd         1 27D      -0.187200
     13 C11          0.1930    -0.9210     1.0290 ca         1 27D      -0.150800
     14 C12         -0.7330    -0.1300     0.3300 ca         1 27D      -0.054000
     15 C13         -0.3230     0.9550    -0.4420 ca         1 27D      -0.118000
     16 C14          1.0340     1.2140    -0.5070 ca         1 27D      -0.069000
     17 C15          1.9950     0.4440     0.1700 ca         1 27D      -0.087800
     18 C16          3.4260     0.7570     0.0900 cc         1 27D      -0.053400
     19 C17          4.0130     1.9280     0.4840 cd         1 27D      -0.155100
     20 N02          5.3670     1.8780     0.2750 na         1 27D      -0.178400
     21 C18          6.3190     2.9030     0.6340 c3         1 27D       0.068900
     22 C19          5.6760     0.6680    -0.2530 ca         1 27D       0.145500
     23 N03          6.9010     0.2510    -0.5810 nb         1 27D      -0.230000
     24 C20          6.9020    -0.9620    -1.0940 ca         1 27D       0.176900
     25 N04          5.8600    -1.7580    -1.3270 nb         1 27D      -0.301000
     26 C21          4.6380    -1.3270    -1.0040 ca         1 27D       0.427900
     27 N05          3.5980    -2.1380    -1.2640 nv         1 27D      -1.055900
     28 C22          4.4920    -0.0630    -0.3990 ca         1 27D      -0.236800
     29 C            1.5410    -0.6110     0.9380 ca         1 27D       0.221000
     30 F            2.4130    -1.3560     1.6300 f          1 27D      -0.161000
     31 N           -6.2250     0.6620     0.5190 nb         1 27D      -0.671000
     32 H1          -7.4000     3.3220     0.3790 hc         1 27D       0.053033
     33 H2          -8.9530     2.5140     0.5380 hc         1 27D       0.053033
     34 H3          -7.7200     2.3310     1.7950 hc         1 27D       0.053033
     35 H4          -8.8060     1.1970    -1.5490 ha         1 27D       0.124000
     36 H5          -7.7770    -0.7540    -2.7020 ha         1 27D       0.121000
     37 H6          -5.7190    -1.7750    -1.7310 ha         1 27D       0.122000
     38 H7          -4.5140    -0.9000     1.6180 hc         1 27D       0.083200
     39 H8          -4.3290    -2.0080     0.2680 hc         1 27D       0.083200
     40 H9          -2.6860    -2.3170     1.7930 h4         1 27D       0.217000
     41 H10         -0.1270    -2.7110     2.3660 ha         1 27D       0.218000
     42 H11         -1.0160     1.5750    -0.9850 ha         1 27D       0.149000
     43 H12          1.3800     2.0430    -1.1110 ha         1 27D       0.122000
     44 H13          3.5580     2.8030     0.9210 h4         1 27D       0.219000
     45 H14          6.8110     2.6730     1.5790 h1         1 27D       0.054367
     46 H15          7.0760     2.9980    -0.1420 h1         1 27D       0.054367
     47 H16          5.8000     3.8530     0.7310 h1         1 27D       0.054367
     48 H17          7.8700    -1.3670    -1.3710 h5         1 27D       0.042100
     49 H18          3.7640    -2.9450    -1.8430 hn         1 27D       0.490000
     50 H19          2.6630    -1.7690    -1.2800 hn         1 27D       0.490000
@<TRIPOS>BOND
     1     1     2 1   
     2     1    32 1   
     3     1    33 1   
     4     1    34 1   
     5     2     3 ar  
     6     2    31 ar  
     7     3     4 ar  
     8     3    35 1   
     9     4     5 ar  
    10     4    36 1   
    11     5     6 ar  
    12     5    37 1   
    13     6     7 1   
    14     6    31 ar  
    15     7     8 1   
    16     7    38 1   
    17     7    39 1   
    18     8     9 2   
    19     8    10 1   
    20    10    11 1   
    21    10    14 1   
    22    11    12 2   
    23    11    40 1   
    24    12    13 1   
    25    12    41 1   
    26    13    14 ar  
    27    13    29 ar  
    28    14    15 ar  
    29    15    16 ar  
    30    15    42 1   
    31    16    17 ar  
    32    16    43 1   
    33    17    18 1   
    34    17    29 ar  
    35    18    19 2   
    36    18    28 1   
    37    19    20 1   
    38    19    44 1   
    39    20    21 1   
    40    20    22 1   
    41    21    45 1   
    42    21    46 1   
    43    21    47 1   
    44    22    23 ar  
    45    22    28 ar  
    46    23    24 ar  
    47    24    25 ar  
    48    24    48 1   
    49    25    26 ar  
    50    26    27 1   
    51    26    28 ar  
    52    27    49 1   
    53    27    50 1   
    54    29    30 1   
@<TRIPOS>SUBSTRUCTURE
     1 27D         1 TEMP              0 ****  ****    0 ROOT
