@<TRIPOS>MOLECULE
27E
   21    25     1     0     0
SMALL
No Charge or Current Charge


@<TRIPOS>ATOM
      1 OAU         -0.0320    -3.5660     0.4340 o          1 27E      -0.390100
      2 CAA         -0.0250    -2.3500     0.2900 c          1 27E       0.617100
      3 CAB          1.1970    -1.3980     0.1660 cy         1 27E      -0.015000
      4 ClT          2.8390    -2.1530     0.2380 cl         1 27E      -0.105500
      5 CAC          0.8040    -0.2540     1.1430 cy         1 27E       0.112000
      6 ClS          1.7110    -0.0140     2.6820 cl         1 27E      -0.109000
      7 CAH          1.0090     0.7460    -0.0850 cy         1 27E       0.095000
      8 ClN          2.6950     1.4040    -0.1800 cl         1 27E      -0.107000
      9 CAG          0.7820    -0.5120    -1.0430 cy         1 27E       0.112000
     10 ClO          1.6570    -0.6390    -2.6130 cl         1 27E      -0.109000
     11 CAF         -0.8300    -0.5010    -1.0280 cy         1 27E       0.112000
     12 ClP         -1.7360    -0.6150    -2.5810 cl         1 27E      -0.109000
     13 CAE         -1.2350    -1.3810     0.1880 cy         1 27E      -0.015000
     14 ClQ         -2.8850    -2.1140     0.2910 cl         1 27E      -0.105500
     15 CAD         -0.8080    -0.2430     1.1580 cy         1 27E       0.112000
     16 ClR         -1.6830     0.0090     2.7130 cl         1 27E      -0.109000
     17 CAJ         -1.0220     0.7600    -0.0660 cy         1 27E       0.095000
     18 ClK         -2.7010     1.4410    -0.1300 cl         1 27E      -0.107000
     19 CAI         -0.0000     1.8680    -0.2070 c5         1 27E       0.313000
     20 ClM         -0.0090     2.7300    -1.8090 cl         1 27E      -0.143500
     21 ClL          0.0210     3.0790     1.1500 cl         1 27E      -0.143500
@<TRIPOS>BOND
     1     1     2 2   
     2     2     3 1   
     3     2    13 1   
     4     3     4 1   
     5     3     5 1   
     6     3     9 1   
     7     5     6 1   
     8     5     7 1   
     9     5    15 1   
    10     7     8 1   
    11     7     9 1   
    12     7    19 1   
    13     9    10 1   
    14     9    11 1   
    15    11    12 1   
    16    11    13 1   
    17    11    17 1   
    18    13    14 1   
    19    13    15 1   
    20    15    16 1   
    21    15    17 1   
    22    17    18 1   
    23    17    19 1   
    24    19    20 1   
    25    19    21 1   
@<TRIPOS>SUBSTRUCTURE
     1 27E         1 TEMP              0 ****  ****    0 ROOT
