@<TRIPOS>MOLECULE
27E
   21    25     1     0     0
SMALL
abcg2


@<TRIPOS>ATOM
      1 OAU         -0.0310    -3.5540     0.4360 o          1 27E      -0.390100
      2 CAA         -0.0250    -2.3770     0.2940 c          1 27E       0.617100
      3 CAB          1.1240    -1.4110     0.1670 cy         1 27E      -0.015000
      4 CLT          2.7130    -2.0650     0.2280 cl         1 27E      -0.105500
      5 CAC          0.7920    -0.1940     1.0740 cy         1 27E       0.112000
      6 CLS          1.5860    -0.0350     2.5900 cl         1 27E      -0.109000
      7 CAH          1.1190     0.7760    -0.0900 cy         1 27E       0.095000
      8 CLN          2.7290     1.3830    -0.1770 cl         1 27E      -0.107000
      9 CAG          0.7710    -0.4370    -0.9900 cy         1 27E       0.112000
     10 CLO          1.5350    -0.6330    -2.5170 cl         1 27E      -0.109000
     11 CAF         -0.8180    -0.4260    -0.9750 cy         1 27E       0.112000
     12 CLP         -1.6130    -0.6110    -2.4870 cl         1 27E      -0.109000
     13 CAE         -1.1620    -1.3950     0.1890 cy         1 27E      -0.015000
     14 CLQ         -2.7590    -2.0280     0.2800 cl         1 27E      -0.105500
     15 CAD         -0.7960    -0.1830     1.0890 cy         1 27E       0.112000
     16 CLR         -1.5610    -0.0120     2.6180 cl         1 27E      -0.109000
     17 CAJ         -1.1320     0.7910    -0.0690 cy         1 27E       0.095000
     18 CLK         -2.7350     1.4210    -0.1270 cl         1 27E      -0.107000
     19 CAI         -0.0010     1.7840    -0.1970 c5         1 27E       0.313000
     20 CLM         -0.0090     2.5790    -1.7600 cl         1 27E      -0.143500
     21 CLL          0.0190     2.9240     1.1340 cl         1 27E      -0.143500
@<TRIPOS>BOND
     1     1     2 2   
     2     2     3 1   
     3     2    13 1   
     4     3     4 1   
     5     3     5 1   
     6     3     9 1   
     7     5     6 1   
     8     5     7 1   
     9     5    15 1   
    10     7     8 1   
    11     7     9 1   
    12     7    19 1   
    13     9    10 1   
    14     9    11 1   
    15    11    12 1   
    16    11    13 1   
    17    11    17 1   
    18    13    14 1   
    19    13    15 1   
    20    15    16 1   
    21    15    17 1   
    22    17    18 1   
    23    17    19 1   
    24    19    20 1   
    25    19    21 1   
@<TRIPOS>SUBSTRUCTURE
     1 27E         1 TEMP              0 ****  ****    0 ROOT
