@<TRIPOS>MOLECULE
27F
   28    30     1     0     0
SMALL
No Charge or Current Charge


@<TRIPOS>ATOM
      1 CAB          2.0200    -1.5760    -0.2810 c          1 27F       0.579600
      2 OAA          2.4530    -2.7020    -0.4710 o          1 27F      -0.532000
      3 CAK          2.8710    -0.3810    -0.0800 ca         1 27F      -0.201600
      4 CAJ          4.2790    -0.4770    -0.0890 ca         1 27F      -0.040000
      5 CAI          5.0630     0.6730     0.0970 ca         1 27F      -0.130000
      6 CAH          4.4440     1.9170     0.2910 ca         1 27F      -0.074000
      7 CAG          3.0410     2.0060     0.2980 ca         1 27F      -0.102000
      8 CAF          2.2410     0.8630     0.1140 ca         1 27F       0.185400
      9 CAD          0.1370    -0.0830    -0.0310 cc         1 27F       0.551500
     10 CAL         -1.3370    -0.0330    -0.0370 ca         1 27F      -0.127900
     11 CAQ         -2.1130    -1.1350     0.4010 ca         1 27F      -0.079000
     12 CAP         -3.5170    -1.0590     0.4270 ca         1 27F      -0.078500
     13 CAO         -4.1740     0.1210     0.0330 ca         1 27F       0.005000
     14 CAR         -5.6090     0.1960     0.0620 cg         1 27F       0.316000
     15 NAS         -6.7760     0.2480     0.0880 n1         1 27F      -0.437000
     16 CAN         -3.4130     1.2300    -0.3770 ca         1 27F      -0.078500
     17 N            0.6950    -1.3180    -0.2420 ns         1 27F      -0.428400
     18 CAM         -2.0100     1.1570    -0.4030 ca         1 27F      -0.079000
     19 N1           0.8460     1.0360     0.1360 nd         1 27F      -0.624100
     20 H            0.0880    -2.1060    -0.4030 hn         1 27F       0.332500
     21 HAJ          4.7660    -1.4390    -0.2400 ha         1 27F       0.136000
     22 HAI          6.1480     0.5990     0.0910 ha         1 27F       0.121000
     23 HAH          5.0470     2.8100     0.4350 ha         1 27F       0.119000
     24 HAG          2.5680     2.9730     0.4490 ha         1 27F       0.133000
     25 HAM         -1.4460     2.0310    -0.7220 ha         1 27F       0.134000
     26 HAQ         -1.6400    -2.0540     0.7390 ha         1 27F       0.134000
     27 HAN         -3.9080     2.1530    -0.6750 ha         1 27F       0.132500
     28 HAP         -4.0940    -1.9190     0.7620 ha         1 27F       0.132500
@<TRIPOS>BOND
     1     1     2 2   
     2     1     3 1   
     3     1    17 1   
     4     3     4 ar  
     5     3     8 ar  
     6     4     5 ar  
     7     4    21 1   
     8     5     6 ar  
     9     5    22 1   
    10     6     7 ar  
    11     6    23 1   
    12     7     8 ar  
    13     7    24 1   
    14     8    19 1   
    15     9    10 1   
    16     9    17 1   
    17     9    19 2   
    18    10    11 ar  
    19    10    18 ar  
    20    11    12 ar  
    21    11    26 1   
    22    12    13 ar  
    23    12    28 1   
    24    13    14 1   
    25    13    16 ar  
    26    14    15 3   
    27    16    18 ar  
    28    16    27 1   
    29    17    20 1   
    30    18    25 1   
@<TRIPOS>SUBSTRUCTURE
     1 27F         1 TEMP              0 ****  ****    0 ROOT
