@<TRIPOS>MOLECULE
27F
   28    30     1     0     0
SMALL
bcc


@<TRIPOS>ATOM
      1 CAB          2.0590    -1.5940    -0.2850 c          1 27F       0.722100
      2 OAA          2.4980    -2.7110    -0.4810 o          1 27F      -0.607500
      3 CAK          2.8560    -0.3910    -0.0810 ca         1 27F      -0.201600
      4 CAJ          4.2520    -0.4480    -0.0930 ca         1 27F      -0.058000
      5 CAI          4.9890     0.7020     0.0900 ca         1 27F      -0.148000
      6 CAH          4.3370     1.9240     0.2860 ca         1 27F      -0.092000
      7 CAG          2.9610     1.9940     0.2980 ca         1 27F      -0.120000
      8 CAF          2.1970     0.8340     0.1130 ca         1 27F       0.185400
      9 CAD          0.1390    -0.1340    -0.0360 cc         1 27F       0.551500
     10 CAL         -1.3350    -0.0580    -0.0050 ca         1 27F      -0.127900
     11 CAQ         -2.1130    -1.1360     0.4100 ca         1 27F      -0.097000
     12 CAP         -3.4920    -1.0350     0.4390 ca         1 27F      -0.096500
     13 CAO         -4.1010     0.1530     0.0430 ca         1 27F       0.005000
     14 CAR         -5.5250     0.2600     0.0620 cg         1 27F       0.226800
     15 NAS         -6.6730     0.3490     0.0770 n1         1 27F      -0.347800
     16 CAN         -3.3310     1.2400    -0.3700 ca         1 27F      -0.096500
     17 N            0.7010    -1.3580    -0.2500 ns         1 27F      -0.495400
     18 CAM         -1.9540     1.1330    -0.3870 ca         1 27F      -0.097000
     19 N1           0.8270     0.9360     0.1370 nd         1 27F      -0.624100
     20 H            0.1040    -2.1530    -0.4420 hn         1 27F       0.332500
     21 HAJ          4.7470    -1.3980    -0.2490 ha         1 27F       0.154000
     22 HAI          6.0690     0.6610     0.0820 ha         1 27F       0.139000
     23 HAH          4.9200     2.8240     0.4320 ha         1 27F       0.137000
     24 HAG          2.4510     2.9360     0.4530 ha         1 27F       0.151000
     25 HAM         -1.3550     1.9730    -0.7080 ha         1 27F       0.152000
     26 HAQ         -1.6590    -2.0600     0.7450 ha         1 27F       0.152000
     27 HAN         -3.8070     2.1600    -0.6800 ha         1 27F       0.150500
     28 HAP         -4.0890    -1.8730     0.7710 ha         1 27F       0.150500
@<TRIPOS>BOND
     1     1     2 2   
     2     1     3 1   
     3     1    17 1   
     4     3     4 ar  
     5     3     8 ar  
     6     4     5 ar  
     7     4    21 1   
     8     5     6 ar  
     9     5    22 1   
    10     6     7 ar  
    11     6    23 1   
    12     7     8 ar  
    13     7    24 1   
    14     8    19 1   
    15     9    10 1   
    16     9    17 1   
    17     9    19 2   
    18    10    11 ar  
    19    10    18 ar  
    20    11    12 ar  
    21    11    26 1   
    22    12    13 ar  
    23    12    28 1   
    24    13    14 1   
    25    13    16 ar  
    26    14    15 3   
    27    16    18 ar  
    28    16    27 1   
    29    17    20 1   
    30    18    25 1   
@<TRIPOS>SUBSTRUCTURE
     1 27F         1 TEMP              0 ****  ****    0 ROOT
