@<TRIPOS>MOLECULE
27G
   43    44     1     0     0
SMALL
No Charge or Current Charge


@<TRIPOS>ATOM
      1 CAA          8.0660    -1.8960    -0.2030 c3         1 27G      -0.088100
      2 CAM          6.6450    -2.1010     0.3570 c3         1 27G      -0.075400
      3 CAN          5.6420    -1.0340    -0.1330 c3         1 27G      -0.084400
      4 CAO          4.2220    -1.2410     0.4280 c3         1 27G       0.166600
      5 OAQ          3.3930    -0.1920    -0.0990 os         1 27G      -0.436100
      6 CAS          2.0670    -0.1740     0.2580 c          1 27G       0.617700
      7 OAB          1.5800    -0.9400     1.0800 o          1 27G      -0.473000
      8 CAV          1.3240     1.0210    -0.2950 ca         1 27G      -0.072600
      9 CAK          1.9890     2.2670    -0.3700 ca         1 27G      -0.085000
     10 CAG          1.3180     3.4150    -0.8170 ca         1 27G      -0.092000
     11 CAH         -0.0290     3.3360    -1.1950 ca         1 27G      -0.108000
     12 CAL         -0.7030     2.1060    -1.1360 ca         1 27G      -0.065000
     13 CAW         -0.0390     0.9370    -0.6980 ca         1 27G      -0.095600
     14 CAT         -0.7830    -0.3770    -0.7160 c          1 27G       0.607700
     15 OAC         -0.2950    -1.4130    -1.1490 o          1 27G      -0.480000
     16 OAR         -2.1080    -0.2450    -0.3910 os         1 27G      -0.436100
     17 CAP         -2.9360    -1.4180    -0.4470 c3         1 27G       0.214900
     18 CAU         -4.3500    -1.0230    -0.0410 ca         1 27G      -0.101300
     19 CAI         -5.2630    -0.5560    -1.0070 ca         1 27G      -0.084500
     20 CAE         -6.5680    -0.1910    -0.6320 ca         1 27G      -0.115500
     21 CAD         -6.9670    -0.2890     0.7120 ca         1 27G      -0.098000
     22 CAF         -6.0600    -0.7520     1.6810 ca         1 27G      -0.115500
     23 CAJ         -4.7550    -1.1170     1.3060 ca         1 27G      -0.084500
     24 H1           8.4660    -0.9210     0.1020 hc         1 27G       0.033367
     25 H2           8.7410    -2.6750     0.1720 hc         1 27G       0.033367
     26 H3           8.0630    -1.9420    -1.2980 hc         1 27G       0.033367
     27 H4           6.2880    -3.0970     0.0660 hc         1 27G       0.040200
     28 H5           6.6880    -2.0850     1.4530 hc         1 27G       0.040200
     29 H6           5.9990    -0.0390     0.1600 hc         1 27G       0.053700
     30 H7           5.5990    -1.0530    -1.2290 hc         1 27G       0.053700
     31 H8           3.8450    -2.2270     0.1220 h1         1 27G       0.050700
     32 H9           4.2500    -1.2030     1.5250 h1         1 27G       0.050700
     33 H10          3.0300     2.3510    -0.0610 ha         1 27G       0.128000
     34 H11          1.8420     4.3680    -0.8640 ha         1 27G       0.120000
     35 H12         -0.5510     4.2260    -1.5400 ha         1 27G       0.121000
     36 H13         -1.7430     2.0590    -1.4530 ha         1 27G       0.134000
     37 H14         -2.9510    -1.8370    -1.4620 h1         1 27G       0.058700
     38 H15         -2.5600    -2.1930     0.2330 h1         1 27G       0.058700
     39 H16         -4.9610    -0.4750    -2.0490 ha         1 27G       0.115500
     40 H17         -7.2680     0.1680    -1.3820 ha         1 27G       0.114500
     41 H18         -7.9770    -0.0070     1.0020 ha         1 27G       0.113000
     42 H19         -6.3670    -0.8260     2.7210 ha         1 27G       0.114500
     43 H20         -4.0580    -1.4710     2.0630 ha         1 27G       0.115500
@<TRIPOS>BOND
     1     1     2 1   
     2     1    24 1   
     3     1    25 1   
     4     1    26 1   
     5     2     3 1   
     6     2    27 1   
     7     2    28 1   
     8     3     4 1   
     9     3    29 1   
    10     3    30 1   
    11     4     5 1   
    12     4    31 1   
    13     4    32 1   
    14     5     6 1   
    15     6     7 2   
    16     6     8 1   
    17     8     9 ar  
    18     8    13 ar  
    19     9    10 ar  
    20     9    33 1   
    21    10    11 ar  
    22    10    34 1   
    23    11    12 ar  
    24    11    35 1   
    25    12    13 ar  
    26    12    36 1   
    27    13    14 1   
    28    14    15 2   
    29    14    16 1   
    30    16    17 1   
    31    17    18 1   
    32    17    37 1   
    33    17    38 1   
    34    18    19 ar  
    35    18    23 ar  
    36    19    20 ar  
    37    19    39 1   
    38    20    21 ar  
    39    20    40 1   
    40    21    22 ar  
    41    21    41 1   
    42    22    23 ar  
    43    22    42 1   
    44    23    43 1   
@<TRIPOS>SUBSTRUCTURE
     1 27G         1 TEMP              0 ****  ****    0 ROOT
