@<TRIPOS>MOLECULE
27G
   43    44     1     0     0
SMALL
bcc


@<TRIPOS>ATOM
      1 CAA          7.5420    -2.3210    -0.7140 c3         1 27G      -0.088100
      2 CAM          6.3410    -2.1590     0.2070 c3         1 27G      -0.075400
      3 CAN          5.3240    -1.1630    -0.3400 c3         1 27G      -0.084400
      4 CAO          4.1370    -1.0300     0.5880 c3         1 27G       0.143400
      5 OAQ          3.2360    -0.0610     0.0240 os         1 27G      -0.412900
      6 CAS          2.1210     0.2010     0.6780 c          1 27G       0.666700
      7 OAB          1.7890    -0.3180     1.7130 o          1 27G      -0.522000
      8 CAV          1.3460     1.2980     0.0240 ca         1 27G      -0.072600
      9 CAK          1.9460     2.5440    -0.0980 ca         1 27G      -0.103000
     10 CAG          1.2180     3.6290    -0.5690 ca         1 27G      -0.110000
     11 CAH         -0.1120     3.4700    -0.9250 ca         1 27G      -0.126000
     12 CAL         -0.7140     2.2250    -0.8140 ca         1 27G      -0.083000
     13 CAW          0.0080     1.1330    -0.3440 ca         1 27G      -0.095600
     14 CAT         -0.5900    -0.2280    -0.3460 c          1 27G       0.656700
     15 OAC          0.0570    -1.2340    -0.5040 o          1 27G      -0.529000
     16 OAR         -1.9010    -0.2020    -0.1890 os         1 27G      -0.412900
     17 CAP         -2.6100    -1.4540    -0.2640 c3         1 27G       0.191700
     18 CAU         -4.0620    -1.1390    -0.0920 ca         1 27G      -0.101300
     19 CAI         -4.8530    -0.8390    -1.1980 ca         1 27G      -0.102500
     20 CAE         -6.1920    -0.5110    -1.0380 ca         1 27G      -0.133500
     21 CAD         -6.7520    -0.4780     0.2320 ca         1 27G      -0.116000
     22 CAF         -5.9700    -0.7780     1.3410 ca         1 27G      -0.133500
     23 CAJ         -4.6320    -1.1060     1.1770 ca         1 27G      -0.102500
     24 H1           8.0500    -1.3670    -0.8680 hc         1 27G       0.033367
     25 H2           8.2690    -3.0200    -0.3000 hc         1 27G       0.033367
     26 H3           7.2410    -2.6960    -1.6940 hc         1 27G       0.033367
     27 H4           5.8590    -3.1300     0.3570 hc         1 27G       0.040200
     28 H5           6.6780    -1.8300     1.1940 hc         1 27G       0.040200
     29 H6           5.8020    -0.1880    -0.4700 hc         1 27G       0.053700
     30 H7           4.9850    -1.4890    -1.3280 hc         1 27G       0.053700
     31 H8           3.6210    -1.9870     0.7000 h1         1 27G       0.050700
     32 H9           4.4530    -0.7000     1.5800 h1         1 27G       0.050700
     33 H10          2.9790     2.6810     0.1930 ha         1 27G       0.146000
     34 H11          1.6930     4.5970    -0.6550 ha         1 27G       0.138000
     35 H12         -0.6810     4.3120    -1.2950 ha         1 27G       0.139000
     36 H13         -1.7460     2.1060    -1.1170 ha         1 27G       0.152000
     37 H14         -2.4170    -1.9250    -1.2300 h1         1 27G       0.058700
     38 H15         -2.2510    -2.1220     0.5210 h1         1 27G       0.058700
     39 H16         -4.4200    -0.8680    -2.1910 ha         1 27G       0.133500
     40 H17         -6.7980    -0.2840    -1.9060 ha         1 27G       0.132500
     41 H18         -7.7970    -0.2260     0.3580 ha         1 27G       0.131000
     42 H19         -6.4030    -0.7570     2.3320 ha         1 27G       0.132500
     43 H20         -4.0270    -1.3430     2.0450 ha         1 27G       0.133500
@<TRIPOS>BOND
     1     1     2 1   
     2     1    24 1   
     3     1    25 1   
     4     1    26 1   
     5     2     3 1   
     6     2    27 1   
     7     2    28 1   
     8     3     4 1   
     9     3    29 1   
    10     3    30 1   
    11     4     5 1   
    12     4    31 1   
    13     4    32 1   
    14     5     6 1   
    15     6     7 2   
    16     6     8 1   
    17     8     9 ar  
    18     8    13 ar  
    19     9    10 ar  
    20     9    33 1   
    21    10    11 ar  
    22    10    34 1   
    23    11    12 ar  
    24    11    35 1   
    25    12    13 ar  
    26    12    36 1   
    27    13    14 1   
    28    14    15 2   
    29    14    16 1   
    30    16    17 1   
    31    17    18 1   
    32    17    37 1   
    33    17    38 1   
    34    18    19 ar  
    35    18    23 ar  
    36    19    20 ar  
    37    19    39 1   
    38    20    21 ar  
    39    20    40 1   
    40    21    22 ar  
    41    21    41 1   
    42    22    23 ar  
    43    22    42 1   
    44    23    43 1   
@<TRIPOS>SUBSTRUCTURE
     1 27G         1 TEMP              0 ****  ****    0 ROOT
