@<TRIPOS>MOLECULE
27H
   56    58     1     0     0
SMALL
bcc


@<TRIPOS>ATOM
      1 CAB         -0.2770     3.5870     0.3470 c3         1 27H      -0.090100
      2 CAV          0.3380     2.4180    -0.4260 c3         1 27H      -0.084700
      3 CAC          0.9700     2.9360    -1.7170 c3         1 27H      -0.090100
      4 CAZ          1.3080     1.5900     0.4550 c5         1 27H       0.173800
      5 CAX          1.8050     0.2900    -0.2390 c5         1 27H      -0.050700
      6 OAG          0.6580     1.2020     1.6530 oh         1 27H      -0.591800
      7 CAO          2.6150     2.3810     0.7450 c5         1 27H      -0.111400
      8 CAN          3.7350     1.6140     0.0480 c5         1 27H      -0.073400
      9 CAY          3.2970     0.1490     0.1370 c5         1 27H      -0.041000
     10 CAD          3.5310    -0.3570     1.5640 c3         1 27H      -0.081100
     11 CAM          4.0610    -0.7290    -0.8640 c3         1 27H      -0.029200
     12 CAH          3.8210    -2.2040    -0.7170 c2         1 27H      -0.166200
     13 CAR          2.6360    -2.8130    -0.7630 c2         1 27H      -0.109400
     14 CAA          2.5120    -4.2950    -0.5750 c3         1 27H      -0.055900
     15 CAP          1.3380    -2.0840    -1.0200 c3         1 27H      -0.057200
     16 CAW          0.9840    -0.9740    -0.0230 c3         1 27H       0.180100
     17 OAQ         -0.3950    -0.6450    -0.2650 os         1 27H      -0.429900
     18 CAS         -1.3300    -0.9930     0.6040 c          1 27H       0.676700
     19 OAE         -1.1300    -1.6560     1.5960 o          1 27H      -0.544000
     20 CAU         -2.6670    -0.4900     0.2180 ca         1 27H      -0.178600
     21 CAK         -2.9050     0.1930    -0.9770 ca         1 27H      -0.035000
     22 CAI         -4.1700     0.6470    -1.2950 ca         1 27H      -0.216000
     23 CAT         -5.2320     0.4270    -0.4170 ca         1 27H       0.166100
     24 OAF         -6.4400     0.8890    -0.7700 oh         1 27H      -0.490100
     25 CAJ         -5.0070    -0.2570     0.7780 ca         1 27H      -0.216000
     26 CAL         -3.7370    -0.7090     1.0830 ca         1 27H      -0.035000
     27 H1          -0.8850     4.1990    -0.3200 hc         1 27H       0.033367
     28 H2          -0.9340     3.2540     1.1510 hc         1 27H       0.033367
     29 H3           0.4830     4.2430     0.7800 hc         1 27H       0.033367
     30 H4          -0.4870     1.7620    -0.7120 hc         1 27H       0.067700
     31 H5           1.7560     3.6700    -1.5300 hc         1 27H       0.033367
     32 H6           1.3990     2.1410    -2.3270 hc         1 27H       0.033367
     33 H7           0.2110     3.4280    -2.3270 hc         1 27H       0.033367
     34 H8           1.8000     0.4840    -1.3180 hc         1 27H       0.056700
     35 H9           0.5070     1.9870     2.1880 ho         1 27H       0.403000
     36 H10          2.5610     3.4210     0.4210 hc         1 27H       0.048700
     37 H11          2.7920     2.4090     1.8230 hc         1 27H       0.048700
     38 H12          3.8100     1.9130    -1.0040 hc         1 27H       0.044700
     39 H13          4.7150     1.7860     0.4990 hc         1 27H       0.044700
     40 H14          3.0010     0.2350     2.3060 hc         1 27H       0.039033
     41 H15          3.2200    -1.3930     1.6960 hc         1 27H       0.039033
     42 H16          4.5970    -0.3090     1.7990 hc         1 27H       0.039033
     43 H17          3.8010    -0.3980    -1.8780 hc         1 27H       0.044200
     44 H18          5.1310    -0.5360    -0.7490 hc         1 27H       0.044200
     45 H19          4.6960    -2.8200    -0.5320 ha         1 27H       0.120000
     46 H20          3.4740    -4.7650    -0.3720 hc         1 27H       0.041367
     47 H21          1.8390    -4.5290     0.2550 hc         1 27H       0.041367
     48 H22          2.0830    -4.7710    -1.4610 hc         1 27H       0.041367
     49 H23          1.3460    -1.6580    -2.0300 hc         1 27H       0.053700
     50 H24          0.5270    -2.8160    -1.0060 hc         1 27H       0.053700
     51 H25          1.0930    -1.3410     0.9980 h1         1 27H       0.090700
     52 H26         -2.1030     0.3720    -1.6790 ha         1 27H       0.151000
     53 H27         -4.3430     1.1740    -2.2250 ha         1 27H       0.142000
     54 H28         -7.0970     0.6780    -0.0960 ho         1 27H       0.430000
     55 H29         -5.8240    -0.4360     1.4680 ha         1 27H       0.142000
     56 H30         -3.5800    -1.2390     2.0130 ha         1 27H       0.151000
@<TRIPOS>BOND
     1     1     2 1   
     2     1    27 1   
     3     1    28 1   
     4     1    29 1   
     5     2     3 1   
     6     2     4 1   
     7     2    30 1   
     8     3    31 1   
     9     3    32 1   
    10     3    33 1   
    11     4     5 1   
    12     4     6 1   
    13     4     7 1   
    14     5     9 1   
    15     5    16 1   
    16     5    34 1   
    17     6    35 1   
    18     7     8 1   
    19     7    36 1   
    20     7    37 1   
    21     8     9 1   
    22     8    38 1   
    23     8    39 1   
    24     9    10 1   
    25     9    11 1   
    26    10    40 1   
    27    10    41 1   
    28    10    42 1   
    29    11    12 1   
    30    11    43 1   
    31    11    44 1   
    32    12    13 2   
    33    12    45 1   
    34    13    14 1   
    35    13    15 1   
    36    14    46 1   
    37    14    47 1   
    38    14    48 1   
    39    15    16 1   
    40    15    49 1   
    41    15    50 1   
    42    16    17 1   
    43    16    51 1   
    44    17    18 1   
    45    18    19 2   
    46    18    20 1   
    47    20    21 ar  
    48    20    26 ar  
    49    21    22 ar  
    50    21    52 1   
    51    22    23 ar  
    52    22    53 1   
    53    23    24 1   
    54    23    25 ar  
    55    24    54 1   
    56    25    26 ar  
    57    25    55 1   
    58    26    56 1   
@<TRIPOS>SUBSTRUCTURE
     1 27H         1 TEMP              0 ****  ****    0 ROOT
