@<TRIPOS>MOLECULE
27H
   56    58     1     0     0
SMALL
No Charge or Current Charge


@<TRIPOS>ATOM
      1 CAB         -0.4850     3.5000     0.3700 c3         1 27H      -0.090100
      2 CAV          0.1950     2.3350    -0.4060 c3         1 27H      -0.084700
      3 CAC          0.7370     2.8810    -1.7590 c3         1 27H      -0.090100
      4 CAZ          1.2400     1.5130     0.4550 c5         1 27H       0.197000
      5 CAX          1.8550     0.2400    -0.2790 c5         1 27H      -0.050700
      6 OAG          0.5480     1.1190     1.6420 oh         1 27H      -0.654000
      7 CAO          2.5160     2.3490     0.8480 c5         1 27H      -0.111400
      8 CAN          3.6970     1.6430     0.1240 c5         1 27H      -0.073400
      9 CAY          3.3320     0.1340     0.2400 c5         1 27H      -0.041000
     10 CAD          3.5020    -0.4110     1.6980 c3         1 27H      -0.081100
     11 CAM          4.2240    -0.7320    -0.7030 c3         1 27H      -0.029200
     12 CAH          3.9710    -2.2310    -0.6610 c2         1 27H      -0.216200
     13 CAR          2.8060    -2.8660    -0.8830 c2         1 27H      -0.109400
     14 CAA          2.6820    -4.3770    -0.7960 c3         1 27H      -0.055900
     15 CAP          1.4930    -2.1770    -1.2440 c3         1 27H      -0.057200
     16 CAW          1.0250    -1.1140    -0.2180 c3         1 27H       0.203300
     17 OAQ         -0.4000    -0.8960    -0.4710 os         1 27H      -0.453100
     18 CAS         -1.2550    -0.8470     0.6040 c          1 27H       0.627700
     19 OAE         -1.0280    -1.3960     1.6760 o          1 27H      -0.495000
     20 CAU         -2.6350    -0.3500     0.2400 ca         1 27H      -0.178600
     21 CAK         -2.9630     0.0140    -1.0870 ca         1 27H      -0.017000
     22 CAI         -4.2510     0.4840    -1.3950 ca         1 27H      -0.198000
     23 CAT         -5.2200     0.5980    -0.3920 ca         1 27H       0.166100
     24 OAF         -6.4640     1.0550    -0.7040 oh         1 27H      -0.529100
     25 CAJ         -4.9080     0.2410     0.9280 ca         1 27H      -0.198000
     26 CAL         -3.6210    -0.2300     1.2440 ca         1 27H      -0.017000
     27 H1          -1.2100     4.0180    -0.2700 hc         1 27H       0.033367
     28 H2          -1.0380     3.1370     1.2440 hc         1 27H       0.033367
     29 H3           0.2500     4.2400     0.7080 hc         1 27H       0.033367
     30 H4          -0.6180     1.6550    -0.6760 hc         1 27H       0.067700
     31 H5           1.6060     3.5320    -1.6130 hc         1 27H       0.033367
     32 H6           1.0200     2.0750    -2.4430 hc         1 27H       0.033367
     33 H7          -0.0350     3.4670    -2.2720 hc         1 27H       0.033367
     34 H8           1.9070     0.4490    -1.3520 hc         1 27H       0.056700
     35 H9           0.3380     1.9450     2.1240 ho         1 27H       0.442000
     36 H10          2.4560     3.4030     0.5550 hc         1 27H       0.048700
     37 H11          2.6690     2.3560     1.9320 hc         1 27H       0.048700
     38 H12          3.7660     1.9680    -0.9220 hc         1 27H       0.044700
     39 H13          4.6620     1.8780     0.5890 hc         1 27H       0.044700
     40 H14          2.9020     0.1330     2.4340 hc         1 27H       0.039033
     41 H15          3.2130    -1.4650     1.7810 hc         1 27H       0.039033
     42 H16          4.5470    -0.3370     2.0200 hc         1 27H       0.039033
     43 H17          4.1200    -0.3850    -1.7380 hc         1 27H       0.044200
     44 H18          5.2770    -0.5520    -0.4510 hc         1 27H       0.044200
     45 H19          4.8610    -2.8100    -0.4100 ha         1 27H       0.170000
     46 H20          3.6380    -4.8500    -0.5390 hc         1 27H       0.041367
     47 H21          1.9550    -4.6700    -0.0290 hc         1 27H       0.041367
     48 H22          2.3530    -4.8020    -1.7520 hc         1 27H       0.041367
     49 H23          1.5780    -1.7150    -2.2350 hc         1 27H       0.053700
     50 H24          0.6950    -2.9240    -1.3400 hc         1 27H       0.053700
     51 H25          1.1720    -1.5540     0.7760 h1         1 27H       0.090700
     52 H26         -2.2280    -0.0640    -1.8860 ha         1 27H       0.133000
     53 H27         -4.4950     0.7620    -2.4180 ha         1 27H       0.124000
     54 H28         -7.0040     1.0660     0.1150 ho         1 27H       0.469000
     55 H29         -5.6530     0.3270     1.7150 ha         1 27H       0.124000
     56 H30         -3.3920    -0.4980     2.2740 ha         1 27H       0.133000
@<TRIPOS>BOND
     1     1     2 1   
     2     1    27 1   
     3     1    28 1   
     4     1    29 1   
     5     2     3 1   
     6     2     4 1   
     7     2    30 1   
     8     3    31 1   
     9     3    32 1   
    10     3    33 1   
    11     4     5 1   
    12     4     6 1   
    13     4     7 1   
    14     5     9 1   
    15     5    16 1   
    16     5    34 1   
    17     6    35 1   
    18     7     8 1   
    19     7    36 1   
    20     7    37 1   
    21     8     9 1   
    22     8    38 1   
    23     8    39 1   
    24     9    10 1   
    25     9    11 1   
    26    10    40 1   
    27    10    41 1   
    28    10    42 1   
    29    11    12 1   
    30    11    43 1   
    31    11    44 1   
    32    12    13 2   
    33    12    45 1   
    34    13    14 1   
    35    13    15 1   
    36    14    46 1   
    37    14    47 1   
    38    14    48 1   
    39    15    16 1   
    40    15    49 1   
    41    15    50 1   
    42    16    17 1   
    43    16    51 1   
    44    17    18 1   
    45    18    19 2   
    46    18    20 1   
    47    20    21 ar  
    48    20    26 ar  
    49    21    22 ar  
    50    21    52 1   
    51    22    23 ar  
    52    22    53 1   
    53    23    24 1   
    54    23    25 ar  
    55    24    54 1   
    56    25    26 ar  
    57    25    55 1   
    58    26    56 1   
@<TRIPOS>SUBSTRUCTURE
     1 27H         1 TEMP              0 ****  ****    0 ROOT
