@<TRIPOS>MOLECULE
27I
   49    51     1     0     0
SMALL
abcg2


@<TRIPOS>ATOM
      1 N1           1.2880    -3.4270     0.7120 na         1 27I       0.129800
      2 O1          -4.0620     1.7820    -0.8110 o          1 27I      -0.580100
      3 N7          -3.7590    -0.4120    -0.2240 ns         1 27I      -0.434400
      4 C10         -5.0560    -0.9110    -0.2220 c2         1 27I       0.660800
      5 N9          -5.0890    -2.1970     0.2640 nv         1 27I      -1.082200
      6 N8          -6.0390    -0.2470    -0.6830 n2         1 27I      -0.826100
      7 C6          -1.8670     1.0020    -0.3940 ca         1 27I       0.075500
      8 N3          -1.1570    -0.0790    -0.0790 nb         1 27I      -0.601000
      9 C7          -1.1740     2.2000    -0.6830 ca         1 27I       0.691900
     10 N6          -1.7590     3.2920    -1.1980 nv         1 27I      -1.055900
     11 N4           0.1350     2.2670    -0.4610 nb         1 27I      -0.856000
     12 C8           0.8060     1.2220     0.0040 ca         1 27I       0.683900
     13 C5           0.1410    -0.0540     0.0780 ca         1 27I       0.276500
     14 C3           0.8070    -1.3560     0.1910 cc         1 27I      -0.242500
     15 C2           1.7680    -1.9140    -0.6730 cc         1 27I       0.254900
     16 N2           2.0500    -3.1610    -0.3440 nd         1 27I      -0.528800
     17 C4           1.3490    -4.7250     1.3410 c3         1 27I       0.073900
     18 C1           0.5210    -2.3840     1.0660 cd         1 27I      -0.152000
     19 N5           2.0870     1.4360     0.3820 nh         1 27I      -0.769300
     20 C16          2.8140     0.6290     1.3550 c3         1 27I       0.227300
     21 C15          4.1180     0.0280     0.8440 c3         1 27I      -0.089900
     22 C14          5.0520     0.9550     0.0650 c3         1 27I      -0.068900
     23 C13          4.4680     1.4350    -1.2670 c3         1 27I      -0.068900
     24 C12          3.5780     2.6750    -1.1670 c3         1 27I      -0.089900
     25 C11          2.7260     2.7140     0.0950 c3         1 27I       0.227300
     26 H1          -3.0080    -1.0550    -0.0030 hn         1 27I       0.348500
     27 H2          -4.4230    -2.4410     0.9810 hn         1 27I       0.454500
     28 H3          -6.0060    -2.5660     0.4560 hn         1 27I       0.454500
     29 H4          -6.8980    -0.7730    -0.5610 hn         1 27I       0.376400
     30 H5          -1.2250     4.1440    -1.2450 hn         1 27I       0.511000
     31 H6          -2.7620     3.3460    -1.2320 hn         1 27I       0.511000
     32 H7           2.2460    -1.4460    -1.5210 h4         1 27I       0.042100
     33 H8           2.3500    -4.9140     1.7240 h1         1 27I       0.055700
     34 H9           0.6450    -4.7500     2.1670 h1         1 27I       0.055700
     35 H10          1.0860    -5.5030     0.6270 h1         1 27I       0.055700
     36 H11         -0.1600    -2.4310     1.9010 h4         1 27I       0.154000
     37 H12          3.0260     1.2800     2.2090 h1         1 27I       0.052950
     38 H13          2.1770    -0.1650     1.7360 h1         1 27I       0.052950
     39 H14          4.6430    -0.3690     1.7170 hc         1 27I       0.048700
     40 H15          3.8900    -0.8310     0.2110 hc         1 27I       0.048700
     41 H16          5.3610     1.8090     0.6770 hc         1 27I       0.039450
     42 H17          5.2780     1.6490    -1.9680 hc         1 27I       0.039450
     43 H18          4.1940     3.5790    -1.1670 hc         1 27I       0.048700
     44 H19          2.9390     2.7370    -2.0510 hc         1 27I       0.048700
     45 H20          1.9780     3.5000     0.0230 h1         1 27I       0.052950
     46 H21          3.3560     2.9570     0.9520 h1         1 27I       0.052950
     47 H22          5.9660     0.3920    -0.1360 hc         1 27I       0.039450
     48 H23          3.9010     0.6130    -1.7150 hc         1 27I       0.039450
     49 C9          -3.3290     0.8540    -0.5070 c          1 27I       0.558600
@<TRIPOS>BOND
     1     1    16 1   
     2     1    17 1   
     3     1    18 1   
     4     2    49 2   
     5     3     4 1   
     6     3    26 1   
     7     3    49 1   
     8     4     5 1   
     9     4     6 2   
    10     5    27 1   
    11     5    28 1   
    12     6    29 1   
    13     7     8 ar  
    14     7     9 ar  
    15     7    49 1   
    16     8    13 ar  
    17     9    10 1   
    18     9    11 ar  
    19    10    30 1   
    20    10    31 1   
    21    11    12 ar  
    22    12    13 ar  
    23    12    19 1   
    24    13    14 1   
    25    14    15 1   
    26    14    18 2   
    27    15    16 2   
    28    15    32 1   
    29    17    33 1   
    30    17    34 1   
    31    17    35 1   
    32    18    36 1   
    33    19    20 1   
    34    19    25 1   
    35    20    21 1   
    36    20    37 1   
    37    20    38 1   
    38    21    22 1   
    39    21    39 1   
    40    21    40 1   
    41    22    23 1   
    42    22    41 1   
    43    22    47 1   
    44    23    24 1   
    45    23    42 1   
    46    23    48 1   
    47    24    25 1   
    48    24    43 1   
    49    24    44 1   
    50    25    45 1   
    51    25    46 1   
@<TRIPOS>SUBSTRUCTURE
     1 27I         1 TEMP              0 ****  ****    0 ROOT
