@<TRIPOS>MOLECULE
27I
   49    51     1     0     0
SMALL
No Charge or Current Charge


@<TRIPOS>ATOM
      1 N1           1.2820    -3.5800    -0.1930 na         1 27I       0.129800
      2 O1          -4.1910     1.8180     0.3920 o          1 27I      -0.580100
      3 N7          -4.0000    -0.4250     0.0240 ns         1 27I      -0.434400
      4 C10         -5.3010    -0.8100    -0.0430 c2         1 27I       0.660800
      5 N9          -5.3870    -2.0810     0.3630 nv         1 27I      -1.082200
      6 N8          -6.2260    -0.2020    -0.6370 n2         1 27I      -0.826100
      7 C6          -1.9650     0.8900     0.1640 ca         1 27I       0.075500
      8 N3          -1.2600    -0.2880     0.0740 nb         1 27I      -0.601000
      9 C7          -1.2830     2.1430     0.2460 ca         1 27I       0.691900
     10 N6          -1.8120     3.3680     0.3200 nv         1 27I      -1.055900
     11 N4           0.0360     2.2880     0.2580 nb         1 27I      -0.856000
     12 C8           0.7350     1.1310     0.1740 ca         1 27I       0.683900
     13 C5           0.1030    -0.1740     0.0770 ca         1 27I       0.276500
     14 C3           0.8510    -1.4440     0.0110 cc         1 27I      -0.242500
     15 C2           2.2170    -1.7210     0.1670 cc         1 27I       0.254900
     16 N2           2.5190    -2.9980     0.0500 nd         1 27I      -0.528800
     17 C4           1.1570    -5.0310    -0.3890 c3         1 27I       0.073900
     18 C1           0.2400    -2.6470    -0.2140 cd         1 27I      -0.152000
     19 N5           2.1220     1.3710     0.1340 nh         1 27I      -0.769300
     20 C16          2.7510     1.9710     1.3300 c3         1 27I       0.227300
     21 C15          4.1980     1.5130     1.6110 c3         1 27I      -0.089900
     22 C14          5.2150     1.7440     0.4640 c3         1 27I      -0.068900
     23 C13          5.0660     0.7610    -0.7220 c3         1 27I      -0.068900
     24 C12          3.8710     0.9980    -1.6860 c3         1 27I      -0.089900
     25 C11          2.6840     1.8270    -1.1530 c3         1 27I       0.227300
     26 H1          -3.3120    -1.1530    -0.0770 hn         1 27I       0.348500
     27 H2          -4.7760    -2.3030     1.1420 hn         1 27I       0.454500
     28 H3          -6.3320    -2.4300     0.4750 hn         1 27I       0.454500
     29 H4          -7.0580    -0.8030    -0.6400 hn         1 27I       0.376400
     30 H5          -1.1720     4.0680     0.6690 hn         1 27I       0.511000
     31 H6          -2.7830     3.4280     0.6150 hn         1 27I       0.511000
     32 H7           3.0150    -1.0290     0.3830 h4         1 27I       0.042100
     33 H8           1.4880    -5.5530     0.5160 h1         1 27I       0.055700
     34 H9           0.1110    -5.2880    -0.5940 h1         1 27I       0.055700
     35 H10          1.7790    -5.3400    -1.2370 h1         1 27I       0.055700
     36 H11         -0.7970    -2.9140    -0.3830 h4         1 27I       0.154000
     37 H12          2.7450     3.0650     1.2350 h1         1 27I       0.052950
     38 H13          2.1500     1.7290     2.2180 h1         1 27I       0.052950
     39 H14          4.5500     2.0520     2.4980 hc         1 27I       0.048700
     40 H15          4.1930     0.4510     1.8840 hc         1 27I       0.048700
     41 H16          5.1600     2.7810     0.1090 hc         1 27I       0.039450
     42 H17          5.9890     0.7930    -1.3160 hc         1 27I       0.039450
     43 H18          4.2450     1.5030    -2.5850 hc         1 27I       0.048700
     44 H19          3.4970     0.0240    -2.0240 hc         1 27I       0.048700
     45 H20          1.9010     1.8150    -1.9250 h1         1 27I       0.052950
     46 H21          3.0010     2.8750    -1.0650 h1         1 27I       0.052950
     47 H22          6.2220     1.6170     0.8800 hc         1 27I       0.039450
     48 H23          5.0150    -0.2600    -0.3270 hc         1 27I       0.039450
     49 C9          -3.4820     0.8360     0.1960 c          1 27I       0.558600
@<TRIPOS>BOND
     1     1    16 1   
     2     1    17 1   
     3     1    18 1   
     4     2    49 2   
     5     3     4 1   
     6     3    26 1   
     7     3    49 1   
     8     4     5 1   
     9     4     6 2   
    10     5    27 1   
    11     5    28 1   
    12     6    29 1   
    13     7     8 ar  
    14     7     9 ar  
    15     7    49 1   
    16     8    13 ar  
    17     9    10 1   
    18     9    11 ar  
    19    10    30 1   
    20    10    31 1   
    21    11    12 ar  
    22    12    13 ar  
    23    12    19 1   
    24    13    14 1   
    25    14    15 1   
    26    14    18 2   
    27    15    16 2   
    28    15    32 1   
    29    17    33 1   
    30    17    34 1   
    31    17    35 1   
    32    18    36 1   
    33    19    20 1   
    34    19    25 1   
    35    20    21 1   
    36    20    37 1   
    37    20    38 1   
    38    21    22 1   
    39    21    39 1   
    40    21    40 1   
    41    22    23 1   
    42    22    41 1   
    43    22    47 1   
    44    23    24 1   
    45    23    42 1   
    46    23    48 1   
    47    24    25 1   
    48    24    43 1   
    49    24    44 1   
    50    25    45 1   
    51    25    46 1   
@<TRIPOS>SUBSTRUCTURE
     1 27I         1 TEMP              0 ****  ****    0 ROOT
