@<TRIPOS>MOLECULE
27J
   49    50     1     0     0
SMALL
bcc


@<TRIPOS>ATOM
      1 CAO         -4.1540     0.6690     0.3260 c3         1 27J      -0.073400
      2 CAK         -3.0880     1.6470    -0.1970 c3         1 27J      -0.075400
      3 CAM         -2.0460     2.0030     0.8640 c3         1 27J      -0.093400
      4 CAV         -0.8380     2.8590     0.4370 c3         1 27J       0.169100
      5 CAA         -1.0020     3.6450    -0.8500 c3         1 27J      -0.119100
      6 OAP          0.4120     2.1060     0.4560 os         1 27J      -0.453900
      7 CAQ          0.5890     1.0290    -0.2980 c          1 27J       0.667700
      8 OAB         -0.2010     0.6360    -1.1190 o          1 27J      -0.526000
      9 CAU          1.8830     0.3550    -0.0230 ca         1 27J      -0.259600
     10 CAS          3.0900     1.0550    -0.1510 ca         1 27J       0.228100
     11 OAD          3.1510     2.3750    -0.4130 oh         1 27J      -0.500100
     12 CAF          4.3040     0.3860    -0.0600 ca         1 27J      -0.279000
     13 CAR          4.3180    -0.9760     0.2100 ca         1 27J       0.198100
     14 OAC          5.4620    -1.6720     0.3180 oh         1 27J      -0.488100
     15 CAG          3.1230    -1.6640     0.4120 ca         1 27J      -0.210000
     16 CAT          1.9070    -1.0120     0.2940 ca         1 27J       0.044700
     17 CAL          0.6480    -1.7940     0.5790 c3         1 27J      -0.040100
     18 CAI          0.1450    -2.6280    -0.6040 c3         1 27J      -0.070400
     19 CAH         -1.1310    -3.4220    -0.2920 c3         1 27J      -0.069400
     20 CAJ         -2.4510    -2.7210    -0.6190 c3         1 27J      -0.071400
     21 CAN         -2.7040    -1.4140     0.1260 c3         1 27J      -0.122400
     22 CAW         -4.0190    -0.7370    -0.2500 c3         1 27J       0.152100
     23 OAE         -5.1460    -1.4760     0.1920 oh         1 27J      -0.606800
     24 H1          -4.1210     0.6190     1.4200 hc         1 27J       0.052200
     25 H2          -5.1500     1.0400     0.0700 hc         1 27J       0.052200
     26 H3          -2.6080     1.2340    -1.0850 hc         1 27J       0.051200
     27 H4          -3.5740     2.5670    -0.5280 hc         1 27J       0.051200
     28 H5          -2.5630     2.5620     1.6490 hc         1 27J       0.050200
     29 H6          -1.6890     1.0950     1.3610 hc         1 27J       0.050200
     30 H7          -0.6470     3.5740     1.2360 h1         1 27J       0.067700
     31 H8          -1.8600     4.3100    -0.7490 hc         1 27J       0.051700
     32 H9          -0.1260     4.2700    -1.0310 hc         1 27J       0.051700
     33 H10         -1.1650     3.0160    -1.7210 hc         1 27J       0.051700
     34 H11          2.3240     2.8150    -0.1800 ho         1 27J       0.446000
     35 H12          5.2260     0.9400    -0.1900 ha         1 27J       0.151000
     36 H13          6.2240    -1.0990     0.1790 ho         1 27J       0.432000
     37 H14          3.1500    -2.7130     0.6810 ha         1 27J       0.153000
     38 H15          0.8600    -2.4780     1.4050 hc         1 27J       0.050200
     39 H16         -0.1410    -1.1370     0.9450 hc         1 27J       0.050200
     40 H17         -0.0120    -1.9860    -1.4730 hc         1 27J       0.051700
     41 H18          0.9400    -3.3250    -0.8820 hc         1 27J       0.051700
     42 H19         -1.1110    -4.3550    -0.8620 hc         1 27J       0.037700
     43 H20         -1.1260    -3.7200     0.7620 hc         1 27J       0.037700
     44 H21         -2.4880    -2.5210    -1.6960 hc         1 27J       0.033700
     45 H22         -3.2570    -3.4340    -0.4190 hc         1 27J       0.033700
     46 H23         -2.6730    -1.5760     1.2100 hc         1 27J       0.057700
     47 H24         -1.9000    -0.7200    -0.1130 hc         1 27J       0.057700
     48 H25         -4.0410    -0.6420    -1.3480 h1         1 27J       0.027700
     49 H26         -5.1080    -2.3540    -0.1990 ho         1 27J       0.404000
@<TRIPOS>BOND
     1     1     2 1   
     2     1    22 1   
     3     1    24 1   
     4     1    25 1   
     5     2     3 1   
     6     2    26 1   
     7     2    27 1   
     8     3     4 1   
     9     3    28 1   
    10     3    29 1   
    11     4     5 1   
    12     4     6 1   
    13     4    30 1   
    14     5    31 1   
    15     5    32 1   
    16     5    33 1   
    17     6     7 1   
    18     7     8 2   
    19     7     9 1   
    20     9    10 ar  
    21     9    16 ar  
    22    10    11 1   
    23    10    12 ar  
    24    11    34 1   
    25    12    13 ar  
    26    12    35 1   
    27    13    14 1   
    28    13    15 ar  
    29    14    36 1   
    30    15    16 ar  
    31    15    37 1   
    32    16    17 1   
    33    17    18 1   
    34    17    38 1   
    35    17    39 1   
    36    18    19 1   
    37    18    40 1   
    38    18    41 1   
    39    19    20 1   
    40    19    42 1   
    41    19    43 1   
    42    20    21 1   
    43    20    44 1   
    44    20    45 1   
    45    21    22 1   
    46    21    46 1   
    47    21    47 1   
    48    22    23 1   
    49    22    48 1   
    50    23    49 1   
@<TRIPOS>SUBSTRUCTURE
     1 27J         1 TEMP              0 ****  ****    0 ROOT
