@<TRIPOS>MOLECULE
27J
   49    50     1     0     0
SMALL
No Charge or Current Charge


@<TRIPOS>ATOM
      1 CAO         -4.2120     0.7190     0.3050 c3         1 27J      -0.073400
      2 CAK         -3.1250     1.7370    -0.1470 c3         1 27J      -0.075400
      3 CAM         -2.0180     2.0010     0.9150 c3         1 27J      -0.093400
      4 CAV         -0.8030     2.8870     0.4780 c3         1 27J       0.192300
      5 CAA         -0.9270     3.6720    -0.8520 c3         1 27J      -0.119100
      6 OAP          0.4210     2.1100     0.4810 os         1 27J      -0.477100
      7 CAQ          0.5690     0.9870    -0.2980 c          1 27J       0.618700
      8 OAB         -0.1650     0.6750    -1.2210 o          1 27J      -0.477000
      9 CAU          1.8820     0.3130    -0.0650 ca         1 27J      -0.259600
     10 CAS          3.0750     1.0400    -0.2280 ca         1 27J       0.228100
     11 OAD          3.0470     2.3710    -0.5100 oh         1 27J      -0.539100
     12 CAF          4.3170     0.4110    -0.0930 ca         1 27J      -0.261000
     13 CAR          4.3770    -0.9480     0.2290 ca         1 27J       0.198100
     14 OAC          5.5810    -1.5660     0.3660 oh         1 27J      -0.527100
     15 CAG          3.1980    -1.6730     0.4350 ca         1 27J      -0.192000
     16 CAT          1.9410    -1.0560     0.2980 ca         1 27J       0.044700
     17 CAL          0.6860    -1.8680     0.6260 c3         1 27J      -0.040100
     18 CAI          0.1440    -2.6830    -0.5740 c3         1 27J      -0.070400
     19 CAH         -1.1590    -3.4760    -0.2750 c3         1 27J      -0.069400
     20 CAJ         -2.4890    -2.7590    -0.6330 c3         1 27J      -0.071400
     21 CAN         -2.7550    -1.4340     0.1230 c3         1 27J      -0.122400
     22 CAW         -4.0630    -0.7120    -0.2820 c3         1 27J       0.175300
     23 OAE         -5.1810    -1.4960     0.1420 oh         1 27J      -0.669000
     24 H1          -4.2460     0.6690     1.4000 hc         1 27J       0.052200
     25 H2          -5.1880     1.1080    -0.0110 hc         1 27J       0.052200
     26 H3          -2.6850     1.3950    -1.0910 hc         1 27J       0.051200
     27 H4          -3.6190     2.6910    -0.3700 hc         1 27J       0.051200
     28 H5          -2.4980     2.5000     1.7660 hc         1 27J       0.050200
     29 H6          -1.6510     1.0500     1.3170 hc         1 27J       0.050200
     30 H7          -0.6990     3.6530     1.2580 h1         1 27J       0.067700
     31 H8          -1.7700     4.3710    -0.8010 hc         1 27J       0.051700
     32 H9          -0.0190     4.2590    -1.0310 hc         1 27J       0.051700
     33 H10         -1.0840     3.0160    -1.7140 hc         1 27J       0.051700
     34 H11          2.1610     2.7010    -0.2410 ho         1 27J       0.485000
     35 H12          5.2270     0.9870    -0.2340 ha         1 27J       0.133000
     36 H13          6.2840    -0.9050     0.1920 ho         1 27J       0.471000
     37 H14          3.2610    -2.7220     0.7140 ha         1 27J       0.135000
     38 H15          0.9150    -2.5690     1.4380 hc         1 27J       0.050200
     39 H16         -0.0910    -1.2170     1.0350 hc         1 27J       0.050200
     40 H17         -0.0130    -2.0260    -1.4380 hc         1 27J       0.051700
     41 H18          0.9230    -3.3970    -0.8730 hc         1 27J       0.051700
     42 H19         -1.1260    -4.4080    -0.8530 hc         1 27J       0.037700
     43 H20         -1.1770    -3.7780     0.7790 hc         1 27J       0.037700
     44 H21         -2.5010    -2.5610    -1.7120 hc         1 27J       0.033700
     45 H22         -3.3120    -3.4580    -0.4380 hc         1 27J       0.033700
     46 H23         -2.7450    -1.6100     1.2060 hc         1 27J       0.057700
     47 H24         -1.9280    -0.7610    -0.1000 hc         1 27J       0.057700
     48 H25         -4.0740    -0.6230    -1.3770 h1         1 27J       0.027700
     49 H26         -5.0720    -2.3840    -0.2590 ho         1 27J       0.443000
@<TRIPOS>BOND
     1     1     2 1   
     2     1    22 1   
     3     1    24 1   
     4     1    25 1   
     5     2     3 1   
     6     2    26 1   
     7     2    27 1   
     8     3     4 1   
     9     3    28 1   
    10     3    29 1   
    11     4     5 1   
    12     4     6 1   
    13     4    30 1   
    14     5    31 1   
    15     5    32 1   
    16     5    33 1   
    17     6     7 1   
    18     7     8 2   
    19     7     9 1   
    20     9    10 ar  
    21     9    16 ar  
    22    10    11 1   
    23    10    12 ar  
    24    11    34 1   
    25    12    13 ar  
    26    12    35 1   
    27    13    14 1   
    28    13    15 ar  
    29    14    36 1   
    30    15    16 ar  
    31    15    37 1   
    32    16    17 1   
    33    17    18 1   
    34    17    38 1   
    35    17    39 1   
    36    18    19 1   
    37    18    40 1   
    38    18    41 1   
    39    19    20 1   
    40    19    42 1   
    41    19    43 1   
    42    20    21 1   
    43    20    44 1   
    44    20    45 1   
    45    21    22 1   
    46    21    46 1   
    47    21    47 1   
    48    22    23 1   
    49    22    48 1   
    50    23    49 1   
@<TRIPOS>SUBSTRUCTURE
     1 27J         1 TEMP              0 ****  ****    0 ROOT
