@<TRIPOS>MOLECULE
27K
   28    28     1     0     0
SMALL
No Charge or Current Charge


@<TRIPOS>ATOM
      1 CAA          5.9920     1.3100    -0.0420 c3         1 27K      -0.088100
      2 CAH          5.0310     0.1060    -0.0270 c3         1 27K      -0.075400
      3 CAI          3.5430     0.5190    -0.0090 c3         1 27K      -0.084400
      4 CAJ          2.5840    -0.6870     0.0060 c3         1 27K       0.167600
      5 OAK          1.2420    -0.1710     0.0220 os         1 27K      -0.448100
      6 CAL          0.2040    -1.0670     0.0370 c          1 27K       0.616700
      7 OAB          0.3610    -2.2820     0.0370 o          1 27K      -0.499000
      8 CAN         -1.1590    -0.4180     0.0540 ca         1 27K      -0.185600
      9 CAF         -2.3190    -1.2230     0.0700 ca         1 27K      -0.012500
     10 CAD         -3.5960    -0.6350     0.0860 ca         1 27K      -0.198500
     11 CAM         -3.7270     0.7610     0.0850 ca         1 27K       0.171100
     12 OAC         -4.9600     1.3370     0.1000 oh         1 27K      -0.527100
     13 CAE         -2.5840     1.5700     0.0690 ca         1 27K      -0.198500
     14 CAG         -1.3040     0.9890     0.0530 ca         1 27K      -0.012500
     15 H1           7.0340     0.9680    -0.0550 hc         1 27K       0.034033
     16 H2           5.8240     1.9310    -0.9300 hc         1 27K       0.034033
     17 H3           5.8470     1.9340     0.8490 hc         1 27K       0.034033
     18 H4           5.2250    -0.5160    -0.9110 hc         1 27K       0.039700
     19 H5           5.2480    -0.5130     0.8530 hc         1 27K       0.039700
     20 H6           3.3510     1.1390     0.8760 hc         1 27K       0.052700
     21 H7           3.3280     1.1360    -0.8900 hc         1 27K       0.052700
     22 H8           2.7540    -1.3030    -0.8870 h1         1 27K       0.048700
     23 H9           2.7770    -1.3000     0.8960 h1         1 27K       0.048700
     24 H10         -2.2350    -2.3090     0.0710 ha         1 27K       0.133500
     25 H11         -4.4780    -1.2720     0.0980 ha         1 27K       0.126000
     26 H12         -5.6340     0.6240     0.1100 ho         1 27K       0.470000
     27 H13         -2.6870     2.6520     0.0690 ha         1 27K       0.126000
     28 H14         -0.4320     1.6410     0.0410 ha         1 27K       0.133500
@<TRIPOS>BOND
     1     1     2 1   
     2     1    15 1   
     3     1    16 1   
     4     1    17 1   
     5     2     3 1   
     6     2    18 1   
     7     2    19 1   
     8     3     4 1   
     9     3    20 1   
    10     3    21 1   
    11     4     5 1   
    12     4    22 1   
    13     4    23 1   
    14     5     6 1   
    15     6     7 2   
    16     6     8 1   
    17     8     9 ar  
    18     8    14 ar  
    19     9    10 ar  
    20     9    24 1   
    21    10    11 ar  
    22    10    25 1   
    23    11    12 1   
    24    11    13 ar  
    25    12    26 1   
    26    13    14 ar  
    27    13    27 1   
    28    14    28 1   
@<TRIPOS>SUBSTRUCTURE
     1 27K         1 TEMP              0 ****  ****    0 ROOT
