@<TRIPOS>MOLECULE
27K
   28    28     1     0     0
SMALL
bcc


@<TRIPOS>ATOM
      1 CAA          5.9510     1.2330    -0.0340 c3         1 27K      -0.088100
      2 CAH          4.9550     0.0830    -0.0330 c3         1 27K      -0.075400
      3 CAI          3.5060     0.5580    -0.0040 c3         1 27K      -0.084400
      4 CAJ          2.5550    -0.6180     0.0080 c3         1 27K       0.144400
      5 OAK          1.2110    -0.1190     0.0200 os         1 27K      -0.424900
      6 CAL          0.2250    -1.0040     0.0330 c          1 27K       0.665700
      7 OAB          0.4070    -2.2000     0.0330 o          1 27K      -0.548000
      8 CAN         -1.1120    -0.3760     0.0470 ca         1 27K      -0.185600
      9 CAF         -2.2350    -1.2020     0.0730 ca         1 27K      -0.030500
     10 CAD         -3.5100    -0.6710     0.0910 ca         1 27K      -0.216500
     11 CAM         -3.6870     0.7120     0.0830 ca         1 27K       0.171100
     12 OAC         -4.8980     1.2850     0.1020 oh         1 27K      -0.488100
     13 CAE         -2.5710     1.5500     0.0560 ca         1 27K      -0.216500
     14 CAG         -1.3000     1.0080     0.0390 ca         1 27K      -0.030500
     15 H1           6.9770     0.8660    -0.0510 hc         1 27K       0.034033
     16 H2           5.8150     1.8740    -0.9070 hc         1 27K       0.034033
     17 H3           5.8370     1.8570     0.8540 hc         1 27K       0.034033
     18 H4           5.1140    -0.5410    -0.9170 hc         1 27K       0.039700
     19 H5           5.1430    -0.5630     0.8300 hc         1 27K       0.039700
     20 H6           3.3420     1.1800     0.8820 hc         1 27K       0.052700
     21 H7           3.3100     1.1880    -0.8760 hc         1 27K       0.052700
     22 H8           2.7060    -1.2450    -0.8740 h1         1 27K       0.048700
     23 H9           2.7220    -1.2410     0.8910 h1         1 27K       0.048700
     24 H10         -2.1150    -2.2770     0.0790 ha         1 27K       0.151500
     25 H11         -4.3680    -1.3330     0.1120 ha         1 27K       0.144000
     26 H12         -5.5910     0.6150     0.1270 ho         1 27K       0.431000
     27 H13         -2.7050     2.6240     0.0490 ha         1 27K       0.144000
     28 H14         -0.4540     1.6800     0.0190 ha         1 27K       0.151500
@<TRIPOS>BOND
     1     1     2 1   
     2     1    15 1   
     3     1    16 1   
     4     1    17 1   
     5     2     3 1   
     6     2    18 1   
     7     2    19 1   
     8     3     4 1   
     9     3    20 1   
    10     3    21 1   
    11     4     5 1   
    12     4    22 1   
    13     4    23 1   
    14     5     6 1   
    15     6     7 2   
    16     6     8 1   
    17     8     9 ar  
    18     8    14 ar  
    19     9    10 ar  
    20     9    24 1   
    21    10    11 ar  
    22    10    25 1   
    23    11    12 1   
    24    11    13 ar  
    25    12    26 1   
    26    13    14 ar  
    27    13    27 1   
    28    14    28 1   
@<TRIPOS>SUBSTRUCTURE
     1 27K         1 TEMP              0 ****  ****    0 ROOT
