@<TRIPOS>MOLECULE
27L
   37    37     1     0     0
SMALL
No Charge or Current Charge


@<TRIPOS>ATOM
      1 CAA         -3.5120     0.4100     1.5850 c3         1 27L      -0.085100
      2 CAN         -3.1220     0.4820     0.0790 c3         1 27L      -0.039000
      3 CAB         -3.8290    -0.6600    -0.6940 c3         1 27L      -0.085100
      4 CAC         -3.6870     1.8280    -0.4620 c3         1 27L      -0.085100
      5 CAK         -1.5540     0.5290    -0.1400 c3         1 27L      -0.061400
      6 CAO         -0.5840    -0.7150    -0.0010 c3         1 27L       0.021300
      7 CAD         -0.8590    -1.4840     1.3230 c3         1 27L      -0.082600
      8 CAE         -0.7530    -1.6850    -1.2060 c3         1 27L      -0.082600
      9 CAM          0.9110    -0.2500    -0.0240 ca         1 27L      -0.104300
     10 CAI          1.3050     1.0800    -0.3410 ca         1 27L      -0.072500
     11 CAG          2.6620     1.4500    -0.3590 ca         1 27L      -0.175000
     12 CAL          3.6580     0.5110    -0.0790 ca         1 27L       0.134100
     13 OAF          4.9680     0.8840    -0.1030 oh         1 27L      -0.535100
     14 CAH          3.3020    -0.8100     0.2100 ca         1 27L      -0.175000
     15 CAJ          1.9470    -1.1870     0.2310 ca         1 27L      -0.072500
     16 H1          -2.9580     1.1530     2.1730 hc         1 27L       0.032478
     17 H2          -4.5820     0.6150     1.7180 hc         1 27L       0.032478
     18 H3          -3.3320    -0.5740     2.0230 hc         1 27L       0.032478
     19 H4          -4.9180    -0.5300    -0.6700 hc         1 27L       0.032478
     20 H5          -3.5190    -0.6770    -1.7460 hc         1 27L       0.032478
     21 H6          -3.6190    -1.6370    -0.2460 hc         1 27L       0.032478
     22 H7          -3.2320     2.6820     0.0540 hc         1 27L       0.032478
     23 H8          -3.4890     1.9380    -1.5360 hc         1 27L       0.032478
     24 H9          -4.7730     1.8910    -0.3190 hc         1 27L       0.032478
     25 H10         -1.3850     0.9410    -1.1440 hc         1 27L       0.038700
     26 H11         -1.1950     1.2940     0.5590 hc         1 27L       0.038700
     27 H12         -1.8420    -1.9630     1.3000 hc         1 27L       0.034867
     28 H13         -0.1460    -2.2940     1.4970 hc         1 27L       0.034867
     29 H14         -0.8130    -0.8070     2.1840 hc         1 27L       0.034867
     30 H15         -0.6790    -1.1380    -2.1530 hc         1 27L       0.034867
     31 H16          0.0220    -2.4600    -1.2090 hc         1 27L       0.034867
     32 H17         -1.7100    -2.2110    -1.1890 hc         1 27L       0.034867
     33 H18          0.5930     1.8610    -0.5890 ha         1 27L       0.111500
     34 H19          2.9380     2.4740    -0.5990 ha         1 27L       0.118500
     35 H20          5.5180     0.1000     0.1120 ho         1 27L       0.463000
     36 H21          4.0660    -1.5560     0.4150 ha         1 27L       0.118500
     37 H22          1.7180    -2.2280     0.4360 ha         1 27L       0.111500
@<TRIPOS>BOND
     1     1     2 1   
     2     1    16 1   
     3     1    17 1   
     4     1    18 1   
     5     2     3 1   
     6     2     4 1   
     7     2     5 1   
     8     3    19 1   
     9     3    20 1   
    10     3    21 1   
    11     4    22 1   
    12     4    23 1   
    13     4    24 1   
    14     5     6 1   
    15     5    25 1   
    16     5    26 1   
    17     6     7 1   
    18     6     8 1   
    19     6     9 1   
    20     7    27 1   
    21     7    28 1   
    22     7    29 1   
    23     8    30 1   
    24     8    31 1   
    25     8    32 1   
    26     9    10 ar  
    27     9    15 ar  
    28    10    11 ar  
    29    10    33 1   
    30    11    12 ar  
    31    11    34 1   
    32    12    13 1   
    33    12    14 ar  
    34    13    35 1   
    35    14    15 ar  
    36    14    36 1   
    37    15    37 1   
@<TRIPOS>SUBSTRUCTURE
     1 27L         1 TEMP              0 ****  ****    0 ROOT
