@<TRIPOS>MOLECULE
27L
   37    37     1     0     0
SMALL
bcc


@<TRIPOS>ATOM
      1 CAA         -3.4480     0.4190     1.5560 c3         1 27L      -0.085100
      2 CAN         -3.0750     0.4640     0.0690 c3         1 27L      -0.039000
      3 CAB         -3.7920    -0.6670    -0.6690 c3         1 27L      -0.085100
      4 CAC         -3.6040     1.7950    -0.4860 c3         1 27L      -0.085100
      5 CAK         -1.5410     0.5090    -0.1510 c3         1 27L      -0.061400
      6 CAO         -0.6040    -0.7120     0.0010 c3         1 27L       0.021300
      7 CAD         -0.8600    -1.4730     1.3070 c3         1 27L      -0.082600
      8 CAE         -0.7670    -1.6750    -1.1880 c3         1 27L      -0.082600
      9 CAM          0.8610    -0.2400    -0.0150 ca         1 27L      -0.104300
     10 CAI          1.2630     1.0690    -0.2750 ca         1 27L      -0.090500
     11 CAG          2.6020     1.4430    -0.3000 ca         1 27L      -0.193000
     12 CAL          3.5960     0.5030    -0.0670 ca         1 27L       0.134100
     13 OAF          4.8830     0.9090    -0.0970 oh         1 27L      -0.496100
     14 CAH          3.2240    -0.8160     0.1820 ca         1 27L      -0.193000
     15 CAJ          1.8850    -1.1660     0.2010 ca         1 27L      -0.090500
     16 H1          -2.9500     1.2190     2.1090 hc         1 27L       0.032478
     17 H2          -4.5240     0.5600     1.6770 hc         1 27L       0.032478
     18 H3          -3.1890    -0.5240     2.0330 hc         1 27L       0.032478
     19 H4          -4.8740    -0.5400    -0.5850 hc         1 27L       0.032478
     20 H5          -3.5440    -0.6760    -1.7320 hc         1 27L       0.032478
     21 H6          -3.5540    -1.6510    -0.2610 hc         1 27L       0.032478
     22 H7          -3.1200     2.6440     0.0020 hc         1 27L       0.032478
     23 H8          -3.4220     1.8800    -1.5590 hc         1 27L       0.032478
     24 H9          -4.6800     1.8860    -0.3220 hc         1 27L       0.032478
     25 H10         -1.3770     0.8980    -1.1620 hc         1 27L       0.038700
     26 H11         -1.1850     1.2930     0.5270 hc         1 27L       0.038700
     27 H12         -1.8530    -1.9210     1.3160 hc         1 27L       0.034867
     28 H13         -0.1490    -2.2880     1.4410 hc         1 27L       0.034867
     29 H14         -0.7780    -0.8170     2.1750 hc         1 27L       0.034867
     30 H15         -0.6300    -1.1500    -2.1350 hc         1 27L       0.034867
     31 H16         -0.0320    -2.4800    -1.1470 hc         1 27L       0.034867
     32 H17         -1.7500    -2.1410    -1.2060 hc         1 27L       0.034867
     33 H18          0.5360     1.8440    -0.4680 ha         1 27L       0.129500
     34 H19          2.8700     2.4730    -0.5030 ha         1 27L       0.136500
     35 H20          5.4720     0.1650     0.0720 ho         1 27L       0.424000
     36 H21          3.9790    -1.5740     0.3600 ha         1 27L       0.136500
     37 H22          1.6460    -2.2050     0.3900 ha         1 27L       0.129500
@<TRIPOS>BOND
     1     1     2 1   
     2     1    16 1   
     3     1    17 1   
     4     1    18 1   
     5     2     3 1   
     6     2     4 1   
     7     2     5 1   
     8     3    19 1   
     9     3    20 1   
    10     3    21 1   
    11     4    22 1   
    12     4    23 1   
    13     4    24 1   
    14     5     6 1   
    15     5    25 1   
    16     5    26 1   
    17     6     7 1   
    18     6     8 1   
    19     6     9 1   
    20     7    27 1   
    21     7    28 1   
    22     7    29 1   
    23     8    30 1   
    24     8    31 1   
    25     8    32 1   
    26     9    10 ar  
    27     9    15 ar  
    28    10    11 ar  
    29    10    33 1   
    30    11    12 ar  
    31    11    34 1   
    32    12    13 1   
    33    12    14 ar  
    34    13    35 1   
    35    14    15 ar  
    36    14    36 1   
    37    15    37 1   
@<TRIPOS>SUBSTRUCTURE
     1 27L         1 TEMP              0 ****  ****    0 ROOT
