@<TRIPOS>MOLECULE
27M
   28    29     1     0     0
SMALL
No Charge or Current Charge


@<TRIPOS>ATOM
      1 OAD        -13.7710   -15.7180    45.7580 oh         1 27M      -0.544100
      2 CAO        -14.6520   -14.7030    45.9550 ca         1 27M       0.254600
      3 CAJ        -15.7070   -14.5410    45.0510 ca         1 27M      -0.246500
      4 CAM        -16.6100   -13.4870    45.2080 ca         1 27M       0.212100
      5 OAB        -17.6290   -13.3360    44.3210 oh         1 27M      -0.526100
      6 CAF        -16.4520   -12.5820    46.2650 ca         1 27M      -0.232500
      7 CAH        -15.3970   -12.7430    47.1790 ca         1 27M       0.013500
      8 CAQ        -14.4990   -13.8250    47.0460 ca         1 27M      -0.315600
      9 CAL        -13.3650   -14.0120    48.0180 c          1 27M       0.644300
     10 OAA        -12.3220   -14.5360    47.6360 o          1 27M      -0.644100
     11 CAR        -13.4910   -13.5650    49.4490 ca         1 27M      -0.315600
     12 CAI        -14.7440   -13.5660    50.1010 ca         1 27M       0.013500
     13 CAG        -14.8450   -13.1440    51.4360 ca         1 27M      -0.232500
     14 CAN        -13.7040   -12.7360    52.1350 ca         1 27M       0.212100
     15 OAC        -13.8180   -12.3310    53.4290 oh         1 27M      -0.526100
     16 CAK        -12.4540   -12.7620    51.5090 ca         1 27M      -0.246500
     17 CAP        -12.3470   -13.1850    50.1790 ca         1 27M       0.254600
     18 OAE        -11.1170   -13.2330    49.6050 oh         1 27M      -0.544100
     19 H1         -13.0150   -15.5340    46.3720 ho         1 27M       0.516500
     20 H2         -15.8200   -15.2310    44.2200 ha         1 27M       0.143500
     21 H3         -18.1490   -12.5480    44.5860 ho         1 27M       0.472000
     22 H4         -17.1380   -11.7480    46.3850 ha         1 27M       0.129500
     23 H5         -15.2790   -12.0140    47.9800 ha         1 27M       0.122500
     24 H6         -15.6420   -13.9010    49.5850 ha         1 27M       0.122500
     25 H7         -15.8120   -13.1410    51.9310 ha         1 27M       0.129500
     26 H8         -12.9250   -12.0890    53.7530 ho         1 27M       0.472000
     27 H9         -11.5580   -12.4650    52.0470 ha         1 27M       0.143500
     28 H10        -11.2390   -13.7360    48.7590 ho         1 27M       0.516500
@<TRIPOS>BOND
     1     1     2 1   
     2     1    19 1   
     3     2     3 ar  
     4     2     8 ar  
     5     3     4 ar  
     6     3    20 1   
     7     4     5 1   
     8     4     6 ar  
     9     5    21 1   
    10     6     7 ar  
    11     6    22 1   
    12     7     8 ar  
    13     7    23 1   
    14     8     9 1   
    15     9    10 2   
    16     9    11 1   
    17    11    12 ar  
    18    11    17 ar  
    19    12    13 ar  
    20    12    24 1   
    21    13    14 ar  
    22    13    25 1   
    23    14    15 1   
    24    14    16 ar  
    25    15    26 1   
    26    16    17 ar  
    27    16    27 1   
    28    17    18 1   
    29    18    28 1   
@<TRIPOS>SUBSTRUCTURE
     1 27M         1 TEMP              0 ****  ****    0 ROOT
