@<TRIPOS>MOLECULE
27N
   30    31     1     0     0
SMALL
bcc


@<TRIPOS>ATOM
      1 CAJ         -1.5180     0.8720    -0.9560 ca         1 27N      -0.066500
      2 CAF         -2.6950     1.5160    -1.3040 ca         1 27N      -0.196500
      3 CAN         -3.6830     1.7380    -0.3490 ca         1 27N       0.151600
      4 OAA         -4.8450     2.3570    -0.6320 oh         1 27N      -0.491600
      5 CAG         -3.4690     1.3140     0.9600 ca         1 27N      -0.196500
      6 CAK         -2.2900     0.6690     1.2880 ca         1 27N      -0.066500
      7 CAP         -1.2930     0.4290     0.3440 ca         1 27N      -0.125300
      8 CAR         -0.0330    -0.2830     0.7890 c3         1 27N       0.052900
      9 CAS         -0.0240    -1.7780     0.4060 c3         1 27N       0.272200
     10 CLD          1.4300    -2.5560     1.0630 cl         1 27N      -0.124400
     11 CLE         -1.4400    -2.5840     1.1160 cl         1 27N      -0.124400
     12 CLC         -0.0680    -2.0650    -1.3410 cl         1 27N      -0.124400
     13 CAQ          1.2620     0.4370     0.4760 ca         1 27N      -0.125300
     14 CAL          1.9920     0.9470     1.5470 ca         1 27N      -0.066500
     15 CAH          3.1790     1.6390     1.3640 ca         1 27N      -0.196500
     16 CAO          3.6750     1.8350     0.0800 ca         1 27N       0.151600
     17 OAB          4.8220     2.4940    -0.1680 oh         1 27N      -0.491600
     18 CAI          2.9610     1.3310    -1.0050 ca         1 27N      -0.196500
     19 CAM          1.7750     0.6450    -0.8040 ca         1 27N      -0.066500
     20 H1          -0.7780     0.7320    -1.7300 ha         1 27N       0.134250
     21 H2          -2.8390     1.8460    -2.3270 ha         1 27N       0.141250
     22 H3          -4.8730     2.6100    -1.5610 ho         1 27N       0.427000
     23 H4          -4.2230     1.4910     1.7170 ha         1 27N       0.141250
     24 H5          -2.1430     0.3500     2.3130 ha         1 27N       0.134250
     25 H6          -0.0840    -0.3240     1.8810 hc         1 27N       0.074700
     26 H7           1.6300     0.8030     2.5580 ha         1 27N       0.134250
     27 H8           3.7150     2.0200     2.2260 ha         1 27N       0.141250
     28 H9           5.2290     2.7830     0.6560 ho         1 27N       0.427000
     29 H10          3.3380     1.4740    -2.0100 ha         1 27N       0.141250
     30 H11          1.2690     0.2690    -1.6810 ha         1 27N       0.134250
@<TRIPOS>BOND
     1     1     2 ar  
     2     1     7 ar  
     3     1    20 1   
     4     2     3 ar  
     5     2    21 1   
     6     3     4 1   
     7     3     5 ar  
     8     4    22 1   
     9     5     6 ar  
    10     5    23 1   
    11     6     7 ar  
    12     6    24 1   
    13     7     8 1   
    14     8     9 1   
    15     8    13 1   
    16     8    25 1   
    17     9    10 1   
    18     9    11 1   
    19     9    12 1   
    20    13    14 ar  
    21    13    19 ar  
    22    14    15 ar  
    23    14    26 1   
    24    15    16 ar  
    25    15    27 1   
    26    16    17 1   
    27    16    18 ar  
    28    17    28 1   
    29    18    19 ar  
    30    18    29 1   
    31    19    30 1   
@<TRIPOS>SUBSTRUCTURE
     1 27N         1 TEMP              0 ****  ****    0 ROOT
