@<TRIPOS>MOLECULE
27N
   30    31     1     0     0
SMALL
No Charge or Current Charge


@<TRIPOS>ATOM
      1 CAJ         -1.3600     1.0560    -0.7880 ca         1 27N      -0.048500
      2 CAF         -2.5000     1.8320    -1.0630 ca         1 27N      -0.178500
      3 CAN         -3.5430     1.9030    -0.1290 ca         1 27N       0.151600
      4 OAA         -4.6510     2.6530    -0.3880 oh         1 27N      -0.530600
      5 CAG         -3.4480     1.2030     1.0810 ca         1 27N      -0.178500
      6 CAK         -2.3110     0.4260     1.3600 ca         1 27N      -0.048500
      7 CAP         -1.2570     0.3400     0.4250 ca         1 27N      -0.125300
      8 CAR         -0.0120    -0.5050     0.7400 c3         1 27N       0.052900
      9 CAS         -0.1050    -1.9660     0.1750 c3         1 27N       0.502000
     10 ClD          1.4240    -2.8990     0.4970 cl         1 27N      -0.201000
     11 ClE         -1.4480    -2.8680     1.0050 cl         1 27N      -0.201000
     12 ClC         -0.4620    -2.0330    -1.6110 cl         1 27N      -0.201000
     13 CAQ          1.2720     0.3030     0.4410 ca         1 27N      -0.125300
     14 CAL          1.6440     1.3110     1.3560 ca         1 27N      -0.048500
     15 CAH          2.7920     2.0940     1.1400 ca         1 27N      -0.178500
     16 CAO          3.5810     1.8800     0.0020 ca         1 27N       0.151600
     17 OAB          4.6950     2.6340    -0.2160 oh         1 27N      -0.530600
     18 CAI          3.2220     0.8900    -0.9200 ca         1 27N      -0.178500
     19 CAM          2.0740     0.1060    -0.7080 ca         1 27N      -0.048500
     20 H1          -0.5590     1.0130    -1.5220 ha         1 27N       0.116250
     21 H2          -2.5630     2.3750    -2.0030 ha         1 27N       0.123250
     22 H3          -4.5440     3.0680    -1.2710 ho         1 27N       0.466000
     23 H4          -4.2560     1.2600     1.8060 ha         1 27N       0.123250
     24 H5          -2.2520    -0.1110     2.3050 ha         1 27N       0.116250
     25 H6           0.0030    -0.6600     1.8260 hc         1 27N       0.074700
     26 H7           1.0370     1.4940     2.2410 ha         1 27N       0.116250
     27 H8           3.0580     2.8630     1.8610 ha         1 27N       0.123250
     28 H9           4.7890     3.2700     0.5250 ho         1 27N       0.466000
     29 H10          3.8320     0.7280    -1.8040 ha         1 27N       0.123250
     30 H11          1.8280    -0.6470    -1.4490 ha         1 27N       0.116250
@<TRIPOS>BOND
     1     1     2 ar  
     2     1     7 ar  
     3     1    20 1   
     4     2     3 ar  
     5     2    21 1   
     6     3     4 1   
     7     3     5 ar  
     8     4    22 1   
     9     5     6 ar  
    10     5    23 1   
    11     6     7 ar  
    12     6    24 1   
    13     7     8 1   
    14     8     9 1   
    15     8    13 1   
    16     8    25 1   
    17     9    10 1   
    18     9    11 1   
    19     9    12 1   
    20    13    14 ar  
    21    13    19 ar  
    22    14    15 ar  
    23    14    26 1   
    24    15    16 ar  
    25    15    27 1   
    26    16    17 1   
    27    16    18 ar  
    28    17    28 1   
    29    18    19 ar  
    30    18    29 1   
    31    19    30 1   
@<TRIPOS>SUBSTRUCTURE
     1 27N         1 TEMP              0 ****  ****    0 ROOT
