@<TRIPOS>MOLECULE
27O
   42    44     1     0     0
SMALL
No Charge or Current Charge


@<TRIPOS>ATOM
      1 C4         -19.0490   -18.3110    46.0120 ca         1 27O      -0.144000
      2 C5         -18.1330   -17.3140    45.6680 ca         1 27O      -0.085000
      3 C6         -17.4740   -17.3210    44.4230 ca         1 27O      -0.115300
      4 C7         -16.4650   -16.1860    44.0920 c6         1 27O      -0.004400
      5 C8         -14.9920   -16.6510    44.3340 c6         1 27O      -0.070900
      6 C10        -14.4370   -14.2120    43.7420 c6         1 27O      -0.073400
      7 C13        -17.7490   -18.3880    43.5170 ca         1 27O      -0.017000
      8 C15        -17.3750   -19.5030    41.3580 ca         1 27O      -0.115000
      9 C17        -18.9580   -20.4400    42.9330 ca         1 27O      -0.058000
     10 C2         -21.7260   -20.2370    44.8830 c          1 27O       0.716000
     11 O          -22.3200   -19.1880    45.0900 o          1 27O      -0.721000
     12 C1         -20.3590   -20.4610    45.5690 c3         1 27O      -0.176400
     13 C          -20.5410   -20.6310    47.1010 c3         1 27O      -0.062100
     14 C3         -19.3450   -19.3730    45.1350 ca         1 27O       0.035700
     15 C18        -18.6910   -19.4050    43.8680 ca         1 27O      -0.034000
     16 C16        -18.3070   -20.4860    41.6930 ca         1 27O      -0.145000
     17 C14        -17.0990   -18.4660    42.2580 ca         1 27O      -0.129000
     18 C12        -16.7150   -14.8340    44.8220 c6         1 27O      -0.070900
     19 C11        -15.8160   -13.7000    44.2470 c6         1 27O      -0.073400
     20 C9         -13.9840   -15.4770    44.5080 c6         1 27O      -0.073400
     21 H1         -19.5290   -18.2360    46.9820 ha         1 27O       0.109000
     22 H2         -17.9450   -16.5340    46.3990 ha         1 27O       0.090000
     23 H3         -16.5790   -15.9360    43.0290 hc         1 27O       0.047700
     24 H4         -14.9460   -17.2870    45.2280 hc         1 27O       0.042450
     25 H5         -14.5000   -14.4450    42.6700 hc         1 27O       0.031200
     26 H6         -13.6840   -13.4180    43.8400 hc         1 27O       0.031200
     27 H7         -16.8650   -19.5410    40.3980 ha         1 27O       0.090000
     28 H8         -19.6750   -21.2260    43.1410 ha         1 27O       0.149000
     29 H10        -19.9800   -21.4360    45.2470 hc         1 27O       0.046700
     30 H11        -19.5700   -20.7580    47.5960 hc         1 27O       0.019033
     31 H12        -21.0540   -19.7710    47.5470 hc         1 27O       0.019033
     32 H13        -21.1450   -21.5210    47.3120 hc         1 27O       0.019033
     33 H14        -18.5260   -21.2890    40.9940 ha         1 27O       0.101000
     34 H15        -16.3640   -17.7330    41.9450 ha         1 27O       0.094000
     35 H16        -17.7710   -14.5420    44.7410 hc         1 27O       0.042450
     36 H17        -16.4980   -14.9410    45.8930 hc         1 27O       0.042450
     37 H18        -15.6680   -12.9350    45.0220 hc         1 27O       0.029950
     38 H19        -16.3350   -13.1970    43.4200 hc         1 27O       0.029950
     39 H20        -12.9860   -15.7890    44.1700 hc         1 27O       0.029950
     40 H21        -14.6700   -17.2870    43.4990 hc         1 27O       0.042450
     41 H22        -13.8840   -15.2340    45.5750 hc         1 27O       0.029950
     42 O1         -22.1490   -21.1120    44.1430 o          1 27O      -0.721000
@<TRIPOS>BOND
     1     1     2 ar  
     2     1    14 ar  
     3     1    21 1   
     4     2     3 ar  
     5     2    22 1   
     6     3     4 1   
     7     3     7 ar  
     8     4     5 1   
     9     4    18 1   
    10     4    23 1   
    11     5    20 1   
    12     5    24 1   
    13     5    40 1   
    14     6    19 1   
    15     6    20 1   
    16     6    25 1   
    17     6    26 1   
    18     7    15 ar  
    19     7    17 ar  
    20     8    16 ar  
    21     8    17 ar  
    22     8    27 1   
    23     9    15 ar  
    24     9    16 ar  
    25     9    28 1   
    26    10    11 1   
    27    10    12 1   
    28    10    42 1   
    29    12    13 1   
    30    12    14 1   
    31    12    29 1   
    32    13    30 1   
    33    13    31 1   
    34    13    32 1   
    35    14    15 ar  
    36    16    33 1   
    37    17    34 1   
    38    18    19 1   
    39    18    35 1   
    40    18    36 1   
    41    19    37 1   
    42    19    38 1   
    43    20    39 1   
    44    20    41 1   
@<TRIPOS>SUBSTRUCTURE
     1 27O         1 TEMP              0 ****  ****    0 ROOT
