@<TRIPOS>MOLECULE
27O
   42    44     1     0     0
SMALL
abcg2


@<TRIPOS>ATOM
      1 C4         -18.9950   -18.3320    46.0420 ca         1 27O      -0.144000
      2 C5         -18.1040   -17.3010    45.6830 ca         1 27O      -0.085000
      3 C6         -17.4760   -17.2690    44.4620 ca         1 27O      -0.115300
      4 C7         -16.4820   -16.1800    44.1210 c6         1 27O      -0.004400
      5 C8         -15.0250   -16.6770    44.3330 c6         1 27O      -0.070900
      6 C10        -14.4790   -14.2920    43.6970 c6         1 27O      -0.073400
      7 C13        -17.7540   -18.3280    43.5400 ca         1 27O      -0.017000
      8 C15        -17.4280   -19.3910    41.3690 ca         1 27O      -0.115000
      9 C17        -18.9250   -20.4020    42.9600 ca         1 27O      -0.058000
     10 C2         -21.6020   -20.3780    44.7700 c          1 27O       0.716000
     11 O          -22.1230   -19.2430    44.6390 o          1 27O      -0.721000
     12 C1         -20.2620   -20.4660    45.5670 c3         1 27O      -0.176400
     13 C          -20.6070   -20.5240    47.0590 c3         1 27O      -0.062100
     14 C3         -19.2930   -19.3680    45.1920 ca         1 27O       0.035700
     15 C18        -18.6660   -19.3750    43.9040 ca         1 27O      -0.034000
     16 C16        -18.3250   -20.4160    41.7270 ca         1 27O      -0.145000
     17 C14        -17.1540   -18.3790    42.2550 ca         1 27O      -0.129000
     18 C12        -16.6770   -14.8640    44.8800 c6         1 27O      -0.070900
     19 C11        -15.8110   -13.7530    44.2570 c6         1 27O      -0.073400
     20 C9         -14.0220   -15.5190    44.4850 c6         1 27O      -0.073400
     21 H1         -19.4500   -18.2910    47.0220 ha         1 27O       0.109000
     22 H2         -17.9150   -16.5180    46.4050 ha         1 27O       0.090000
     23 H3         -16.6020   -15.9400    43.0620 hc         1 27O       0.047700
     24 H4         -14.9960   -17.3090    45.2240 hc         1 27O       0.042450
     25 H5         -14.6010   -14.5720    42.6460 hc         1 27O       0.031200
     26 H6         -13.7170   -13.5100    43.7220 hc         1 27O       0.031200
     27 H7         -16.9540   -19.4010    40.3950 ha         1 27O       0.090000
     28 H8         -19.6180   -21.1900    43.2150 ha         1 27O       0.149000
     29 H10        -19.8110   -21.4240    45.3030 hc         1 27O       0.046700
     30 H11        -19.7080   -20.6220    47.6720 hc         1 27O       0.019033
     31 H12        -21.1440   -19.6310    47.3820 hc         1 27O       0.019033
     32 H13        -21.2450   -21.3880    47.2530 hc         1 27O       0.019033
     33 H14        -18.5410   -21.2140    41.0270 ha         1 27O       0.101000
     34 H15        -16.4630   -17.6030    41.9610 ha         1 27O       0.094000
     35 H16        -17.7280   -14.5690    44.8710 hc         1 27O       0.042450
     36 H17        -16.4010   -15.0010    45.9290 hc         1 27O       0.042450
     37 H18        -15.6100   -12.9900    45.0140 hc         1 27O       0.029950
     38 H19        -16.3680   -13.2590    43.4560 hc         1 27O       0.029950
     39 H20        -13.0300   -15.8420    44.1590 hc         1 27O       0.029950
     40 H21        -14.7390   -17.3120    43.4910 hc         1 27O       0.042450
     41 H22        -13.9270   -15.2450    45.5400 hc         1 27O       0.029950
     42 O1         -22.0800   -21.4670    44.3580 o          1 27O      -0.721000
@<TRIPOS>BOND
     1     1     2 ar  
     2     1    14 ar  
     3     1    21 1   
     4     2     3 ar  
     5     2    22 1   
     6     3     4 1   
     7     3     7 ar  
     8     4     5 1   
     9     4    18 1   
    10     4    23 1   
    11     5    20 1   
    12     5    24 1   
    13     5    40 1   
    14     6    19 1   
    15     6    20 1   
    16     6    25 1   
    17     6    26 1   
    18     7    15 ar  
    19     7    17 ar  
    20     8    16 ar  
    21     8    17 ar  
    22     8    27 1   
    23     9    15 ar  
    24     9    16 ar  
    25     9    28 1   
    26    10    11 1   
    27    10    12 1   
    28    10    42 1   
    29    12    13 1   
    30    12    14 1   
    31    12    29 1   
    32    13    30 1   
    33    13    31 1   
    34    13    32 1   
    35    14    15 ar  
    36    16    33 1   
    37    17    34 1   
    38    18    19 1   
    39    18    35 1   
    40    18    36 1   
    41    19    37 1   
    42    19    38 1   
    43    20    39 1   
    44    20    41 1   
@<TRIPOS>SUBSTRUCTURE
     1 27O         1 TEMP              0 ****  ****    0 ROOT
