@<TRIPOS>MOLECULE
27P
   44    46     1     0     0
SMALL
bcc


@<TRIPOS>ATOM
      1 CAR         -6.1950     0.6670    -0.4910 c5         1 27P       0.159800
      2 CAS         -6.9280    -0.6040    -0.0730 c5         1 27P      -0.080400
      3 CAU         -5.8290    -1.6870    -0.0770 c5         1 27P      -0.080400
      4 CAT         -4.5400    -0.9300    -0.4140 c5         1 27P       0.159800
      5 NAA         -4.8300     0.4460    -0.0410 n3         1 27P      -0.719600
      6 CAB         -3.9150     1.4440    -0.5440 c3         1 27P       0.171800
      7 CAC         -2.5540     1.4460     0.1180 c3         1 27P       0.140400
      8 OAD         -1.7840     0.3620    -0.3720 os         1 27P      -0.328900
      9 CAE         -0.5470     0.1630     0.1240 ca         1 27P       0.146100
     10 CAJ          0.1450    -0.9470    -0.3680 ca         1 27P      -0.190000
     11 CAI          1.4210    -1.2270     0.0800 ca         1 27P      -0.084500
     12 CAF          0.0660     0.9760     1.0730 ca         1 27P      -0.190000
     13 CAG          1.3520     0.6740     1.5140 ca         1 27P      -0.084500
     14 CAH          2.0510    -0.4230     1.0320 ca         1 27P      -0.115300
     15 CAK          3.4560    -0.7290     1.4860 c3         1 27P       0.021200
     16 CAL          4.4780    -0.3450     0.4450 ca         1 27P      -0.075300
     17 CAM          4.8690     0.9840     0.2940 ca         1 27P      -0.122500
     18 CAN          5.7840     1.3490    -0.6830 ca         1 27P      -0.127000
     19 CAO          6.3220     0.3870    -1.5300 ca         1 27P      -0.130000
     20 CAP          5.9400    -0.9400    -1.3880 ca         1 27P      -0.127000
     21 CAQ          5.0260    -1.3010    -0.4060 ca         1 27P      -0.122500
     22 HAR         -6.2460     0.7920    -1.5860 h1         1 27P       0.038200
     23 HARA        -6.6100     1.5730    -0.0430 h1         1 27P       0.038200
     24 HAS         -7.3540    -0.4910     0.9250 hc         1 27P       0.045950
     25 HASA        -7.7500    -0.8340    -0.7500 hc         1 27P       0.045950
     26 HAU         -5.7550    -2.1690     0.8980 hc         1 27P       0.045950
     27 HAUA        -6.0230    -2.4730    -0.8070 hc         1 27P       0.045950
     28 HAT         -3.6770    -1.3200     0.1240 h1         1 27P       0.038200
     29 HATA        -4.3180    -1.0150    -1.4910 h1         1 27P       0.038200
     30 HAB         -3.7890     1.3830    -1.6390 h1         1 27P       0.040700
     31 HABA        -4.3490     2.4270    -0.3400 h1         1 27P       0.040700
     32 HAC         -2.0520     2.3930    -0.1100 h1         1 27P       0.042200
     33 HACA        -2.6730     1.3800     1.2050 h1         1 27P       0.042200
     34 HAJ         -0.3300    -1.5850    -1.1030 ha         1 27P       0.138500
     35 HAI          1.9370    -2.0940    -0.3160 ha         1 27P       0.128500
     36 HAF         -0.4360     1.8420     1.4840 ha         1 27P       0.138500
     37 HAG          1.8090     1.3180     2.2560 ha         1 27P       0.128500
     38 HAK          3.6650    -0.2000     2.4190 hc         1 27P       0.051700
     39 HAKA         3.5490    -1.7950     1.7060 hc         1 27P       0.051700
     40 HAM          4.4530     1.7410     0.9500 ha         1 27P       0.127000
     41 HAN          6.0800     2.3860    -0.7830 ha         1 27P       0.129000
     42 HAO          7.0350     0.6700    -2.2940 ha         1 27P       0.129000
     43 HAP          6.3550    -1.6970    -2.0410 ha         1 27P       0.129000
     44 HAQ          4.7370    -2.3400    -0.2990 ha         1 27P       0.127000
@<TRIPOS>BOND
     1     1     2 1   
     2     1     5 1   
     3     1    22 1   
     4     1    23 1   
     5     2     3 1   
     6     2    24 1   
     7     2    25 1   
     8     3     4 1   
     9     3    26 1   
    10     3    27 1   
    11     4     5 1   
    12     4    28 1   
    13     4    29 1   
    14     5     6 1   
    15     6     7 1   
    16     6    30 1   
    17     6    31 1   
    18     7     8 1   
    19     7    32 1   
    20     7    33 1   
    21     8     9 1   
    22     9    10 ar  
    23     9    12 ar  
    24    10    11 ar  
    25    10    34 1   
    26    11    14 ar  
    27    11    35 1   
    28    12    13 ar  
    29    12    36 1   
    30    13    14 ar  
    31    13    37 1   
    32    14    15 1   
    33    15    16 1   
    34    15    38 1   
    35    15    39 1   
    36    16    17 ar  
    37    16    21 ar  
    38    17    18 ar  
    39    17    40 1   
    40    18    19 ar  
    41    18    41 1   
    42    19    20 ar  
    43    19    42 1   
    44    20    21 ar  
    45    20    43 1   
    46    21    44 1   
@<TRIPOS>SUBSTRUCTURE
     1 27P         1 TEMP              0 ****  ****    0 ROOT
