@<TRIPOS>MOLECULE
27P
   44    46     1     0     0
SMALL
No Charge or Current Charge


@<TRIPOS>ATOM
      1 CAR         -6.2940     0.5960    -0.7570 c5         1 27P       0.159800
      2 CAS         -7.0510    -0.4700     0.0730 c5         1 27P      -0.080400
      3 CAU         -5.9560    -1.5410     0.3760 c5         1 27P      -0.080400
      4 CAT         -4.6430    -0.9050    -0.1610 c5         1 27P       0.159800
      5 NAA         -4.9570     0.5410    -0.1350 n3         1 27P      -0.719600
      6 CAB         -3.9430     1.4460    -0.7450 c3         1 27P       0.171800
      7 CAC         -2.5470     1.4610    -0.0650 c3         1 27P       0.163600
      8 OAD         -1.8090     0.2860    -0.4620 os         1 27P      -0.352100
      9 CAE         -0.5370     0.0250     0.0010 ca         1 27P       0.146100
     10 CAJ          0.0900    -1.1540    -0.4320 ca         1 27P      -0.172000
     11 CAI          1.3860    -1.4740     0.0060 ca         1 27P      -0.066500
     12 CAF          0.1460     0.8920     0.8830 ca         1 27P      -0.172000
     13 CAG          1.4430     0.5700     1.3200 ca         1 27P      -0.066500
     14 CAH          2.0690    -0.6140     0.8860 ca         1 27P      -0.115300
     15 CAK          3.4770    -0.9560     1.3570 c3         1 27P       0.021200
     16 CAL          4.5330    -0.3730     0.4280 ca         1 27P      -0.075300
     17 CAM          5.0540     0.9150     0.6630 ca         1 27P      -0.104500
     18 CAN          6.0250     1.4560    -0.1980 ca         1 27P      -0.109000
     19 CAO          6.4800     0.7120    -1.3000 ca         1 27P      -0.112000
     20 CAP          5.9630    -0.5720    -1.5410 ca         1 27P      -0.109000
     21 CAQ          4.9920    -1.1120    -0.6800 ca         1 27P      -0.104500
     22 HAR         -6.2550     0.3210    -1.8210 h1         1 27P       0.038200
     23 HARA        -6.7590     1.5890    -0.6760 h1         1 27P       0.038200
     24 HAS         -7.4390    -0.0360     1.0020 hc         1 27P       0.045950
     25 HASA        -7.9060    -0.8840    -0.4730 hc         1 27P       0.045950
     26 HAU         -5.8900    -1.7350     1.4530 hc         1 27P       0.045950
     27 HAUA        -6.1640    -2.4990    -0.1120 hc         1 27P       0.045950
     28 HAT         -3.7810    -1.1660     0.4680 h1         1 27P       0.038200
     29 HATA        -4.4330    -1.2470    -1.1850 h1         1 27P       0.038200
     30 HAB         -3.8080     1.2020    -1.8080 h1         1 27P       0.040700
     31 HABA        -4.3280     2.4740    -0.7080 h1         1 27P       0.040700
     32 HAC         -2.0120     2.3640    -0.3850 h1         1 27P       0.042200
     33 HACA        -2.6740     1.5010     1.0250 h1         1 27P       0.042200
     34 HAJ         -0.4330    -1.8220    -1.1110 ha         1 27P       0.120500
     35 HAI          1.8600    -2.3900    -0.3410 ha         1 27P       0.110500
     36 HAF         -0.3090     1.8120     1.2350 ha         1 27P       0.120500
     37 HAG          1.9630     1.2450     1.9970 ha         1 27P       0.110500
     38 HAK          3.6310    -0.5860     2.3790 hc         1 27P       0.051700
     39 HAKA         3.5960    -2.0440     1.4240 hc         1 27P       0.051700
     40 HAM          4.7050     1.4990     1.5120 ha         1 27P       0.109000
     41 HAN          6.4230     2.4510    -0.0120 ha         1 27P       0.111000
     42 HAO          7.2320     1.1300    -1.9660 ha         1 27P       0.111000
     43 HAP          6.3140    -1.1480    -2.3940 ha         1 27P       0.111000
     44 HAQ          4.5950    -2.1060    -0.8750 ha         1 27P       0.109000
@<TRIPOS>BOND
     1     1     2 1   
     2     1     5 1   
     3     1    22 1   
     4     1    23 1   
     5     2     3 1   
     6     2    24 1   
     7     2    25 1   
     8     3     4 1   
     9     3    26 1   
    10     3    27 1   
    11     4     5 1   
    12     4    28 1   
    13     4    29 1   
    14     5     6 1   
    15     6     7 1   
    16     6    30 1   
    17     6    31 1   
    18     7     8 1   
    19     7    32 1   
    20     7    33 1   
    21     8     9 1   
    22     9    10 ar  
    23     9    12 ar  
    24    10    11 ar  
    25    10    34 1   
    26    11    14 ar  
    27    11    35 1   
    28    12    13 ar  
    29    12    36 1   
    30    13    14 ar  
    31    13    37 1   
    32    14    15 1   
    33    15    16 1   
    34    15    38 1   
    35    15    39 1   
    36    16    17 ar  
    37    16    21 ar  
    38    17    18 ar  
    39    17    40 1   
    40    18    19 ar  
    41    18    41 1   
    42    19    20 ar  
    43    19    42 1   
    44    20    21 ar  
    45    20    43 1   
    46    21    44 1   
@<TRIPOS>SUBSTRUCTURE
     1 27P         1 TEMP              0 ****  ****    0 ROOT
