@<TRIPOS>MOLECULE
27Q
   57    56     1     0     0
SMALL
abcg2


@<TRIPOS>ATOM
      1 OAH         18.8940    16.7500     5.7710 o          1 27Q      -0.901500
      2 PAX         17.7470    16.0170     5.0930 p5         1 27Q       1.295900
      3 OAI         18.1980    14.6970     4.4350 o          1 27Q      -0.901500
      4 OAF         16.8640    16.8720     4.2040 o          1 27Q      -0.901500
      5 OAS         16.6940    15.5500     6.3040 os         1 27Q      -0.601400
      6 CAP         17.1400    14.6180     7.2800 c3         1 27Q       0.243600
      7 CAW         16.1860    13.4170     7.4000 c3         1 27Q      -0.091000
      8 CAB         14.8330    13.9120     7.9190 c3         1 27Q      -0.072600
      9 CAC         16.8010    12.4250     8.3940 c3         1 27Q      -0.072600
     10 CAV         16.0490    12.7670     5.9860 c3         1 27Q       0.142300
     11 OAG         17.3100    12.4960     5.4090 oh         1 27Q      -0.812000
     12 CAU         15.2260    11.4810     6.0260 c          1 27Q       0.590100
     13 OAE         14.0090    11.4910     6.2370 o          1 27Q      -0.663100
     14 NAR         15.9260    10.3540     5.8180 ns         1 27Q      -0.510900
     15 CAN         15.3490     9.0290     5.8880 c3         1 27Q       0.116000
     16 CAO         15.4540     8.4240     7.2970 c3         1 27Q      -0.182400
     17 CAT         14.7610     7.0780     7.3490 c          1 27Q       0.593100
     18 OAD         13.5280     6.9890     7.3580 o          1 27Q      -0.622100
     19 NAQ         15.5600     5.9980     7.3470 ns         1 27Q      -0.519900
     20 CAM         15.0500     4.6330     7.3220 c3         1 27Q       0.108000
     21 CAL         16.1850     3.6190     7.4130 c3         1 27Q      -0.091400
     22 CAK         17.0110     3.6780     8.7020 c3         1 27Q      -0.071400
     23 CAJ         16.2220     3.3660     9.9710 c3         1 27Q      -0.076400
     24 CAA         17.0890     3.3730    11.2280 c3         1 27Q      -0.076400
     25 CAY         16.3140     3.0540    12.5050 c3         1 27Q      -0.075400
     26 CAZ         17.1890     3.0790    13.7560 c3         1 27Q      -0.088100
     27 H3          18.1460    14.2670     7.0440 h1         1 27Q       0.005200
     28 H4          17.1850    15.1160     8.2560 h1         1 27Q       0.005200
     29 H5          14.9730    14.4160     8.8790 hc         1 27Q       0.019033
     30 H6          14.3850    14.6260     7.2250 hc         1 27Q       0.019033
     31 H7          14.1340    13.0900     8.0580 hc         1 27Q       0.019033
     32 H8          17.0340    12.9250     9.3370 hc         1 27Q       0.019033
     33 H9          16.1100    11.6090     8.6120 hc         1 27Q       0.019033
     34 H10         17.7230    11.9970     7.9980 hc         1 27Q       0.019033
     35 H11         15.4870    13.4670     5.3610 h1         1 27Q       0.083700
     36 H12         17.6710    13.3620     5.0170 ho         1 27Q       0.570000
     37 H13         16.9120    10.4660     5.6340 hn         1 27Q       0.350500
     38 H14         14.3020     9.0950     5.5980 h1         1 27Q       0.047700
     39 H15         15.8650     8.3900     5.1700 h1         1 27Q       0.047700
     40 H16         16.5040     8.3400     7.5820 hc         1 27Q       0.068700
     41 H17         14.9570     9.0860     8.0070 hc         1 27Q       0.068700
     42 H18         16.5570     6.1390     7.3130 hn         1 27Q       0.312500
     43 H19         14.3470     4.5070     8.1480 h1         1 27Q       0.045700
     44 H20         14.4860     4.4760     6.3990 h1         1 27Q       0.045700
     45 H21         15.7420     2.6240     7.3140 hc         1 27Q       0.041700
     46 H22         16.8460     3.7520     6.5510 hc         1 27Q       0.041700
     47 H23         17.8340     2.9620     8.6110 hc         1 27Q       0.037700
     48 H24         17.4810     4.6620     8.8030 hc         1 27Q       0.037700
     49 H25         15.4110     4.0910    10.0970 hc         1 27Q       0.040700
     50 H26         15.7430     2.3850     9.8640 hc         1 27Q       0.040700
     51 H27         17.9040     2.6500    11.1100 hc         1 27Q       0.036700
     52 H28         17.5640     4.3560    11.3320 hc         1 27Q       0.036700
     53 H29         15.4950     3.7730    12.6170 hc         1 27Q       0.036700
     54 H30         15.8460     2.0690    12.4040 hc         1 27Q       0.036700
     55 H31         16.6110     2.8500    14.6540 hc         1 27Q       0.029367
     56 H32         17.9970     2.3460    13.6820 hc         1 27Q       0.029367
     57 H33         17.6460     4.0620    13.8940 hc         1 27Q       0.029367
@<TRIPOS>BOND
     1     1     2 1   
     2     2     3 1   
     3     2     4 1   
     4     2     5 1   
     5     5     6 1   
     6     6     7 1   
     7     6    27 1   
     8     6    28 1   
     9     7     8 1   
    10     7     9 1   
    11     7    10 1   
    12     8    29 1   
    13     8    30 1   
    14     8    31 1   
    15     9    32 1   
    16     9    33 1   
    17     9    34 1   
    18    10    11 1   
    19    10    12 1   
    20    10    35 1   
    21    11    36 1   
    22    12    13 2   
    23    12    14 1   
    24    14    15 1   
    25    14    37 1   
    26    15    16 1   
    27    15    38 1   
    28    15    39 1   
    29    16    17 1   
    30    16    40 1   
    31    16    41 1   
    32    17    18 2   
    33    17    19 1   
    34    19    20 1   
    35    19    42 1   
    36    20    21 1   
    37    20    43 1   
    38    20    44 1   
    39    21    22 1   
    40    21    45 1   
    41    21    46 1   
    42    22    23 1   
    43    22    47 1   
    44    22    48 1   
    45    23    24 1   
    46    23    49 1   
    47    23    50 1   
    48    24    25 1   
    49    24    51 1   
    50    24    52 1   
    51    25    26 1   
    52    25    53 1   
    53    25    54 1   
    54    26    55 1   
    55    26    56 1   
    56    26    57 1   
@<TRIPOS>SUBSTRUCTURE
     1 27Q         1 TEMP              0 ****  ****    0 ROOT
