@<TRIPOS>MOLECULE
27Q
   57    56     1     0     0
SMALL
No Charge or Current Charge


@<TRIPOS>ATOM
      1 OAH         17.2080    17.0300     4.9500 o          1 27Q      -0.901500
      2 PAX         16.1350    16.2750     5.6510 p5         1 27Q       1.295900
      3 OAI         15.5070    15.2920     4.7270 o          1 27Q      -0.901500
      4 OAF         15.1030    17.2210     6.1540 o          1 27Q      -0.901500
      5 OAS         16.7650    15.4850     6.9010 os         1 27Q      -0.601400
      6 CAP         17.7160    14.4340     6.6660 c3         1 27Q       0.243600
      7 CAW         17.1660    13.0660     7.1940 c3         1 27Q      -0.091000
      8 CAB         17.0700    13.1410     8.7470 c3         1 27Q      -0.072600
      9 CAC         18.2030    11.9630     6.8300 c3         1 27Q      -0.072600
     10 CAV         15.7550    12.7290     6.5790 c3         1 27Q       0.142300
     11 OAG         15.7980    12.8330     5.1250 oh         1 27Q      -0.812000
     12 CAU         15.1720    11.3470     7.0550 c          1 27Q       0.590100
     13 OAE         14.5740    11.1860     8.1140 o          1 27Q      -0.663100
     14 NAR         15.3160    10.3240     6.1440 ns         1 27Q      -0.510900
     15 CAN         14.9070     8.9360     6.3450 c3         1 27Q       0.116000
     16 CAO         15.8960     8.1750     7.2460 c3         1 27Q      -0.182400
     17 CAT         15.4710     6.7170     7.3950 c          1 27Q       0.593100
     18 OAD         14.5230     6.3790     8.0890 o          1 27Q      -0.622100
     19 NAQ         16.2540     5.8120     6.7130 ns         1 27Q      -0.519900
     20 CAM         16.0930     4.3550     6.7510 c3         1 27Q       0.108000
     21 CAL         17.2130     3.6610     7.5590 c3         1 27Q      -0.091400
     22 CAK         17.2820     4.0360     9.0600 c3         1 27Q      -0.071400
     23 CAJ         16.0660     3.5600     9.8890 c3         1 27Q      -0.076400
     24 CAA         16.1830     3.9150    11.3870 c3         1 27Q      -0.076400
     25 CAY         14.9690     3.4430    12.2170 c3         1 27Q      -0.075400
     26 CAZ         15.0850     3.7970    13.7120 c3         1 27Q      -0.088100
     27 H3          17.9520    14.3440     5.5970 h1         1 27Q       0.005200
     28 H4          18.6590    14.6680     7.1780 h1         1 27Q       0.005200
     29 H5          18.0210    13.4740     9.1810 hc         1 27Q       0.019033
     30 H6          16.2910    13.8450     9.0620 hc         1 27Q       0.019033
     31 H7          16.8390    12.1620     9.1830 hc         1 27Q       0.019033
     32 H8          19.1910    12.2080     7.2400 hc         1 27Q       0.019033
     33 H9          17.9110    10.9870     7.2370 hc         1 27Q       0.019033
     34 H10         18.3100    11.8600     5.7440 hc         1 27Q       0.019033
     35 H11         15.0420    13.4730     6.9640 h1         1 27Q       0.083700
     36 H12         15.6890    13.8360     4.9280 ho         1 27Q       0.570000
     37 H13         15.7540    10.5980     5.2690 hn         1 27Q       0.350500
     38 H14         13.9030     8.9170     6.7920 h1         1 27Q       0.047700
     39 H15         14.8510     8.4450     5.3650 h1         1 27Q       0.047700
     40 H16         16.8940     8.2360     6.7980 hc         1 27Q       0.068700
     41 H17         15.9010     8.6440     8.2360 hc         1 27Q       0.068700
     42 H18         17.0180     6.1940     6.1690 hn         1 27Q       0.312500
     43 H19         15.1120     4.0930     7.1670 h1         1 27Q       0.045700
     44 H20         16.1190     3.9840     5.7180 h1         1 27Q       0.045700
     45 H21         17.0900     2.5750     7.4680 hc         1 27Q       0.041700
     46 H22         18.1770     3.9010     7.0930 hc         1 27Q       0.041700
     47 H23         18.1900     3.5890     9.4850 hc         1 27Q       0.037700
     48 H24         17.3950     5.1220     9.1640 hc         1 27Q       0.037700
     49 H25         15.1500     4.0100     9.4900 hc         1 27Q       0.040700
     50 H26         15.9610     2.4730     9.7830 hc         1 27Q       0.040700
     51 H27         17.0960     3.4620    11.7950 hc         1 27Q       0.036700
     52 H28         16.2900     5.0020    11.4920 hc         1 27Q       0.036700
     53 H29         14.0550     3.8960    11.8130 hc         1 27Q       0.036700
     54 H30         14.8600     2.3560    12.1150 hc         1 27Q       0.036700
     55 H31         14.2030     3.4430    14.2580 hc         1 27Q       0.029367
     56 H32         15.9730     3.3290    14.1540 hc         1 27Q       0.029367
     57 H33         15.1610     4.8830    13.8490 hc         1 27Q       0.029367
@<TRIPOS>BOND
     1     1     2 1   
     2     2     3 1   
     3     2     4 1   
     4     2     5 1   
     5     5     6 1   
     6     6     7 1   
     7     6    27 1   
     8     6    28 1   
     9     7     8 1   
    10     7     9 1   
    11     7    10 1   
    12     8    29 1   
    13     8    30 1   
    14     8    31 1   
    15     9    32 1   
    16     9    33 1   
    17     9    34 1   
    18    10    11 1   
    19    10    12 1   
    20    10    35 1   
    21    11    36 1   
    22    12    13 2   
    23    12    14 1   
    24    14    15 1   
    25    14    37 1   
    26    15    16 1   
    27    15    38 1   
    28    15    39 1   
    29    16    17 1   
    30    16    40 1   
    31    16    41 1   
    32    17    18 2   
    33    17    19 1   
    34    19    20 1   
    35    19    42 1   
    36    20    21 1   
    37    20    43 1   
    38    20    44 1   
    39    21    22 1   
    40    21    45 1   
    41    21    46 1   
    42    22    23 1   
    43    22    47 1   
    44    22    48 1   
    45    23    24 1   
    46    23    49 1   
    47    23    50 1   
    48    24    25 1   
    49    24    51 1   
    50    24    52 1   
    51    25    26 1   
    52    25    53 1   
    53    25    54 1   
    54    26    55 1   
    55    26    56 1   
    56    26    57 1   
@<TRIPOS>SUBSTRUCTURE
     1 27Q         1 TEMP              0 ****  ****    0 ROOT
