@<TRIPOS>MOLECULE
27R
   31    32     1     0     0
SMALL
No Charge or Current Charge


@<TRIPOS>ATOM
      1 C4           2.9670     0.1730     0.3090 ca         1 27R      -0.001900
      2 C5           2.9130    -0.9950     1.0840 ca         1 27R      -0.107500
      3 C6           1.7570    -1.7940     1.0720 ca         1 27R      -0.051500
      4 C7          -1.8970    -1.7210    -0.1920 ca         1 27R      -0.269600
      5 C8          -2.5770    -2.3620    -1.2460 ca         1 27R      -0.054000
      6 C10         -4.3520    -0.7090    -1.1240 ca         1 27R      -0.064000
      7 C13         -3.6320     2.4560     0.1950 c          1 27R       0.722000
      8 O2          -3.9140     2.9760    -0.8750 o          1 27R      -0.725000
      9 O1          -2.7250     2.8420     0.9160 o          1 27R      -0.725000
     10 C11         -3.7000    -0.0640    -0.0530 ca         1 27R      -0.074300
     11 C9          -3.7940    -1.8520    -1.7130 ca         1 27R      -0.180000
     12 C14         -2.4600    -0.5780     0.4140 ca         1 27R       0.362000
     13 N           -1.8230     0.0290     1.4690 nv         1 27R      -0.751000
     14 C1           0.6390    -1.4260     0.2890 ca         1 27R      -0.165600
     15 Br           4.5420     1.2580     0.3250 br         1 27R      -0.127100
     16 C3           1.8690     0.5440    -0.4820 ca         1 27R      -0.107500
     17 C2           0.7110    -0.2520    -0.4970 ca         1 27R      -0.051500
     18 H1           3.7670    -1.2840     1.6930 ha         1 27R       0.129500
     19 H2           1.7300    -2.6980     1.6790 ha         1 27R       0.147000
     20 H3          -2.1540    -3.2520    -1.7100 ha         1 27R       0.103000
     21 H4          -5.3000    -0.3290    -1.4980 ha         1 27R       0.102000
     22 H6          -4.3440     1.0280     1.6750 hc         1 27R       0.028700
     23 H7          -5.3980     1.2090     0.2030 hc         1 27R       0.028700
     24 H8          -4.3100    -2.3460    -2.5330 ha         1 27R       0.097000
     25 H9          -0.8680    -0.2310     1.6820 hn         1 27R       0.300000
     26 H10         -2.1160     0.9720     1.7080 hn         1 27R       0.300000
     27 H11          1.9150     1.4460    -1.0880 ha         1 27R       0.129500
     28 H12         -0.1250     0.0480    -1.1270 ha         1 27R       0.147000
     29 C           -0.5980    -2.2990     0.2800 c          1 27R       0.605300
     30 C12         -4.3720     1.1660     0.5880 c3         1 27R      -0.192100
     31 O           -0.5440    -3.4710     0.6340 o          1 27R      -0.558100
@<TRIPOS>BOND
     1     1     2 ar  
     2     1    15 1   
     3     1    16 ar  
     4     2     3 ar  
     5     2    18 1   
     6     3    14 ar  
     7     3    19 1   
     8     4     5 ar  
     9     4    12 ar  
    10     4    29 1   
    11     5    11 ar  
    12     5    20 1   
    13     6    10 ar  
    14     6    11 ar  
    15     6    21 1   
    16     7     8 1   
    17     7     9 1   
    18     7    30 1   
    19    10    12 ar  
    20    10    30 1   
    21    11    24 1   
    22    12    13 1   
    23    13    25 1   
    24    13    26 1   
    25    14    17 ar  
    26    14    29 1   
    27    16    17 ar  
    28    16    27 1   
    29    17    28 1   
    30    22    30 1   
    31    23    30 1   
    32    29    31 2   
@<TRIPOS>SUBSTRUCTURE
     1 27R         1 TEMP              0 ****  ****    0 ROOT
