@<TRIPOS>MOLECULE
27R
   31    32     1     0     0
SMALL
bcc


@<TRIPOS>ATOM
      1 C4           2.8490     0.2380     0.2530 ca         1 27R      -0.001900
      2 C5           2.8910    -0.9950     0.8900 ca         1 27R      -0.125500
      3 C6           1.7640    -1.7990     0.8630 ca         1 27R      -0.069500
      4 C7          -1.9070    -1.7530    -0.1630 ca         1 27R      -0.269600
      5 C8          -2.6340    -2.4260    -1.1510 ca         1 27R      -0.072000
      6 C10         -4.3270    -0.7510    -1.0470 ca         1 27R      -0.082000
      7 C13         -3.2870     2.4450     0.1270 c          1 27R       0.932600
      8 O2          -2.5470     2.3310    -0.8650 o          1 27R      -0.830300
      9 O1          -3.4330     3.4520     0.8480 o          1 27R      -0.830300
     10 C11         -3.6550    -0.0720    -0.0480 ca         1 27R      -0.074300
     11 C9          -3.8420    -1.9360    -1.5970 ca         1 27R      -0.198000
     12 C14         -2.4420    -0.6020     0.4450 ca         1 27R       0.223600
     13 N           -1.8000     0.0260     1.4790 nv         1 27R      -0.822200
     14 C1           0.5960    -1.3750     0.2310 ca         1 27R      -0.165600
     15 BR           4.3820     1.3360     0.2660 br         1 27R      -0.127100
     16 C3           1.7020     0.6790    -0.3910 ca         1 27R      -0.125500
     17 C2           0.5760    -0.1270    -0.3890 ca         1 27R      -0.069500
     18 H1           3.7840    -1.3340     1.3960 ha         1 27R       0.147500
     19 H2           1.7970    -2.7640     1.3510 ha         1 27R       0.165000
     20 H3          -2.2180    -3.3250    -1.5890 ha         1 27R       0.121000
     21 H4          -5.2630    -0.3410    -1.4090 ha         1 27R       0.120000
     22 H6          -4.3110     1.1830     1.5810 hc         1 27R       0.028700
     23 H7          -5.1700     1.4070     0.0880 hc         1 27R       0.028700
     24 H8          -4.3940    -2.4500    -2.3720 ha         1 27R       0.115000
     25 H9          -1.1720    -0.5180     2.0460 hn         1 27R       0.404800
     26 H10         -2.3470     0.6620     2.0340 hn         1 27R       0.404800
     27 H11          1.6760     1.6390    -0.8900 ha         1 27R       0.147500
     28 H12         -0.3190     0.2320    -0.8810 ha         1 27R       0.165000
     29 C           -0.5710    -2.3010     0.1700 c          1 27R       0.605300
     30 C12         -4.1710     1.2210     0.4950 c3         1 27R      -0.192100
     31 O           -0.3990    -3.4980     0.3090 o          1 27R      -0.558100
@<TRIPOS>BOND
     1     1     2 ar  
     2     1    15 1   
     3     1    16 ar  
     4     2     3 ar  
     5     2    18 1   
     6     3    14 ar  
     7     3    19 1   
     8     4     5 ar  
     9     4    12 ar  
    10     4    29 1   
    11     5    11 ar  
    12     5    20 1   
    13     6    10 ar  
    14     6    11 ar  
    15     6    21 1   
    16     7     8 1   
    17     7     9 1   
    18     7    30 1   
    19    10    12 ar  
    20    10    30 1   
    21    11    24 1   
    22    12    13 1   
    23    13    25 1   
    24    13    26 1   
    25    14    17 ar  
    26    14    29 1   
    27    16    17 ar  
    28    16    27 1   
    29    17    28 1   
    30    22    30 1   
    31    23    30 1   
    32    29    31 2   
@<TRIPOS>SUBSTRUCTURE
     1 27R         1 TEMP              0 ****  ****    0 ROOT
