@<TRIPOS>MOLECULE
27S
   47    48     1     0     0
SMALL
No Charge or Current Charge


@<TRIPOS>ATOM
      1 OAG         -0.0920    -0.5870     2.6940 o          1 27S      -0.471100
      2 CAT          0.8490    -0.3680     1.9470 c          1 27S       0.724500
      3 NAM          2.0890     0.0850     2.3910 ne         1 27S      -0.760100
      4 CAS          3.0430    -0.3530     1.6870 c2         1 27S       0.743100
      5 NAD          4.3110    -0.0130     1.9490 nv         1 27S      -1.029200
      6 SAP          2.7300    -1.2670     0.2310 ss         1 27S      -0.402200
      7 CAY          0.9590    -0.7060     0.4090 c5         1 27S       0.038200
      8 CAX          0.6600     0.5540    -0.4630 c6         1 27S       0.131700
      9 NAN          1.3310     0.4610    -1.7770 ns         1 27S      -0.493900
     10 CAQ          2.0030     1.4770    -2.4080 c          1 27S       0.610100
     11 OAE          2.0650     2.6080    -1.9510 o          1 27S      -0.626100
     12 CAC          2.6590     1.0850    -3.7260 c3         1 27S      -0.179100
     13 CAI          0.1390    -1.9560     0.0320 c2         1 27S      -0.250200
     14 CAU         -0.9940    -1.8370    -0.7270 ce         1 27S      -0.133400
     15 CAR         -1.8410    -3.0570    -1.0700 c          1 27S       0.708200
     16 OAH         -2.8200    -2.9190    -1.7890 o          1 27S      -0.716500
     17 OAF         -1.5050    -4.1470    -0.6280 o          1 27S      -0.716500
     18 CAL         -1.4870    -0.4860    -1.2990 c6         1 27S      -0.074200
     19 CAW         -0.8610     0.7630    -0.6310 c6         1 27S       0.167300
     20 OAO         -1.4710     1.0650     0.6460 os         1 27S      -0.450000
     21 CAV         -2.8040     1.6160     0.6630 c3         1 27S       0.184300
     22 CAK         -3.5730     0.9180     1.8110 c3         1 27S      -0.085900
     23 CAB         -3.7580    -0.6020     1.6140 c3         1 27S      -0.089600
     24 CAJ         -2.7040     3.1510     0.8750 c3         1 27S      -0.085900
     25 CAA         -2.0030     3.9340    -0.2560 c3         1 27S      -0.089600
     26 H2           4.3620     0.8030     2.5460 hn         1 27S       0.498000
     27 H3           1.0650     1.4350     0.0550 h1         1 27S       0.090700
     28 H4           1.3620    -0.4460    -2.2260 hn         1 27S       0.327500
     29 H5           1.9010     0.6520    -4.3880 hc         1 27S       0.054700
     30 H6           3.1820     1.9220    -4.2030 hc         1 27S       0.054700
     31 H7           3.3290     0.2350    -3.5510 hc         1 27S       0.054700
     32 H8           0.4460    -2.9340     0.4080 ha         1 27S       0.214000
     33 H10         -1.2570    -0.4630    -2.3730 hc         1 27S       0.062200
     34 H11         -2.5800    -0.4250    -1.2390 hc         1 27S       0.062200
     35 H12         -1.0180     1.6230    -1.2950 h1         1 27S       0.024700
     36 H13         -3.3340     1.4240    -0.2790 h1         1 27S       0.033700
     37 H14         -3.0520     1.0960     2.7600 hc         1 27S       0.035950
     38 H15         -4.5640     1.3790     1.9050 hc         1 27S       0.035950
     39 H16         -4.2880    -0.8100     0.6780 hc         1 27S       0.037367
     40 H17         -2.7890    -1.1150     1.5860 hc         1 27S       0.037367
     41 H18         -4.3420    -1.0250     2.4400 hc         1 27S       0.037367
     42 H19         -3.7200     3.5510     0.9840 hc         1 27S       0.035950
     43 H20         -2.1880     3.3540     1.8210 hc         1 27S       0.035950
     44 H21         -0.9350     3.6910    -0.2980 hc         1 27S       0.037367
     45 H22         -2.4560     3.7050    -1.2280 hc         1 27S       0.037367
     46 H23         -2.0930     5.0120    -0.0820 hc         1 27S       0.037367
     47 H1           4.8970     0.0270     1.1250 hn         1 27S       0.498000
@<TRIPOS>BOND
     1     1     2 2   
     2     2     3 1   
     3     2     7 1   
     4     3     4 2   
     5     4     5 1   
     6     4     6 1   
     7     5    26 1   
     8     5    47 1   
     9     6     7 1   
    10     7     8 1   
    11     7    13 1   
    12     8     9 1   
    13     8    19 1   
    14     8    27 1   
    15     9    10 1   
    16     9    28 1   
    17    10    11 2   
    18    10    12 1   
    19    12    29 1   
    20    12    30 1   
    21    12    31 1   
    22    13    14 2   
    23    13    32 1   
    24    14    15 1   
    25    14    18 1   
    26    15    16 1   
    27    15    17 1   
    28    18    19 1   
    29    18    33 1   
    30    18    34 1   
    31    19    20 1   
    32    19    35 1   
    33    20    21 1   
    34    21    22 1   
    35    21    24 1   
    36    21    36 1   
    37    22    23 1   
    38    22    37 1   
    39    22    38 1   
    40    23    39 1   
    41    23    40 1   
    42    23    41 1   
    43    24    25 1   
    44    24    42 1   
    45    24    43 1   
    46    25    44 1   
    47    25    45 1   
    48    25    46 1   
@<TRIPOS>SUBSTRUCTURE
     1 27S         1 TEMP              0 ****  ****    0 ROOT
