@<TRIPOS>MOLECULE
27S
   47    48     1     0     0
SMALL
bcc


@<TRIPOS>ATOM
      1 OAG         -0.1500    -0.5300     2.5260 o          1 27S      -0.471100
      2 CAT          0.8310    -0.3120     1.8630 c          1 27S       0.724500
      3 NAM          1.9940     0.2100     2.3670 ne         1 27S      -0.760100
      4 CAS          3.0100    -0.0810     1.6110 c2         1 27S       0.743100
      5 NAD          4.2560     0.2320     1.9070 nv         1 27S      -0.918800
      6 SAP          2.6930    -0.9740     0.1270 ss         1 27S      -0.354300
      7 CAY          0.9040    -0.6310     0.3380 c5         1 27S      -0.009700
      8 CAX          0.5570     0.5990    -0.5500 c6         1 27S       0.131700
      9 NAN          1.1480     0.4660    -1.8570 ns         1 27S      -0.560900
     10 CAQ          2.1510     1.2480    -2.3090 c          1 27S       0.677100
     11 OAE          2.6180     2.1750    -1.6670 o          1 27S      -0.626100
     12 CAC          2.6680     0.8850    -3.6780 c3         1 27S      -0.179100
     13 CAI          0.0770    -1.8210    -0.0070 c2         1 27S      -0.200200
     14 CAU         -1.0440    -1.7710    -0.7270 ce         1 27S      -0.133400
     15 CAR         -1.8210    -3.0540    -1.0110 c          1 27S       0.918800
     16 OAH         -2.8400    -2.9250    -1.7180 o          1 27S      -0.821800
     17 OAF         -1.3790    -4.1140    -0.5290 o          1 27S      -0.821800
     18 CAL         -1.5730    -0.4930    -1.3050 c6         1 27S      -0.074200
     19 CAW         -0.9560     0.7660    -0.7060 c6         1 27S       0.144100
     20 OAO         -1.4430     1.0830     0.5690 os         1 27S      -0.403600
     21 CAV         -2.7540     1.6120     0.6640 c3         1 27S       0.161100
     22 CAK         -3.4900     0.8670     1.7720 c3         1 27S      -0.085900
     23 CAB         -3.7290    -0.6060     1.4780 c3         1 27S      -0.089600
     24 CAJ         -2.7040     3.1120     0.9470 c3         1 27S      -0.085900
     25 CAA         -1.9250     3.9270    -0.0760 c3         1 27S      -0.089600
     26 H2           4.4630     0.7030     2.7730 hn         1 27S       0.442800
     27 H3           0.9750     1.4990    -0.0980 h1         1 27S       0.090700
     28 H4           0.8340    -0.2910    -2.4440 hn         1 27S       0.327500
     29 H5           2.0860     0.1120    -4.1740 hc         1 27S       0.054700
     30 H6           2.6820     1.7710    -4.3100 hc         1 27S       0.054700
     31 H7           3.6970     0.5340    -3.5880 hc         1 27S       0.054700
     32 H8           0.4080    -2.7740     0.3900 ha         1 27S       0.164000
     33 H10         -1.4160    -0.4880    -2.3900 hc         1 27S       0.062200
     34 H11         -2.6580    -0.4620    -1.1980 hc         1 27S       0.062200
     35 H12         -1.1190     1.5970    -1.4060 h1         1 27S       0.024700
     36 H13         -3.2960     1.4600    -0.2820 h1         1 27S       0.033700
     37 H14         -2.9130     0.9660     2.6960 hc         1 27S       0.035950
     38 H15         -4.4450     1.3690     1.9490 hc         1 27S       0.035950
     39 H16         -4.3400    -0.7390     0.5830 hc         1 27S       0.037367
     40 H17         -2.7890    -1.1330     1.3220 hc         1 27S       0.037367
     41 H18         -4.2520    -1.0890     2.3050 hc         1 27S       0.037367
     42 H19         -3.7350     3.4750     0.9890 hc         1 27S       0.035950
     43 H20         -2.2830     3.2760     1.9440 hc         1 27S       0.035950
     44 H21         -0.8670     3.6620    -0.0840 hc         1 27S       0.037367
     45 H22         -2.3150     3.7870    -1.0860 hc         1 27S       0.037367
     46 H23         -1.9870     4.9920     0.1520 hc         1 27S       0.037367
     47 H1           5.0250     0.0130     1.2960 hn         1 27S       0.442800
@<TRIPOS>BOND
     1     1     2 2   
     2     2     3 1   
     3     2     7 1   
     4     3     4 2   
     5     4     5 1   
     6     4     6 1   
     7     5    26 1   
     8     5    47 1   
     9     6     7 1   
    10     7     8 1   
    11     7    13 1   
    12     8     9 1   
    13     8    19 1   
    14     8    27 1   
    15     9    10 1   
    16     9    28 1   
    17    10    11 2   
    18    10    12 1   
    19    12    29 1   
    20    12    30 1   
    21    12    31 1   
    22    13    14 2   
    23    13    32 1   
    24    14    15 1   
    25    14    18 1   
    26    15    16 1   
    27    15    17 1   
    28    18    19 1   
    29    18    33 1   
    30    18    34 1   
    31    19    20 1   
    32    19    35 1   
    33    20    21 1   
    34    21    22 1   
    35    21    24 1   
    36    21    36 1   
    37    22    23 1   
    38    22    37 1   
    39    22    38 1   
    40    23    39 1   
    41    23    40 1   
    42    23    41 1   
    43    24    25 1   
    44    24    42 1   
    45    24    43 1   
    46    25    44 1   
    47    25    45 1   
    48    25    46 1   
@<TRIPOS>SUBSTRUCTURE
     1 27S         1 TEMP              0 ****  ****    0 ROOT
