@<TRIPOS>MOLECULE
27U
   54    56     1     0     0
SMALL
No Charge or Current Charge


@<TRIPOS>ATOM
      1 C3          -2.3920     0.1830    -0.3330 c          1 27U       0.610100
      2 O1          -1.8110    -0.8100    -0.7540 o          1 27U      -0.608100
      3 C2          -3.9300     0.2450    -0.2630 c3         1 27U      -0.148400
      4 C1          -4.6660    -1.0860    -0.5420 c3         1 27U      -0.020100
      5 C17         -6.1770    -0.9290    -0.4350 ca         1 27U      -0.084300
      6 C18         -6.9360    -0.5780    -1.5680 ca         1 27U      -0.108000
      7 C19         -8.3310    -0.4280    -1.4680 ca         1 27U      -0.110500
      8 C20         -8.9730    -0.6260    -0.2350 ca         1 27U      -0.112000
      9 C21         -8.2200    -0.9740     0.8990 ca         1 27U      -0.110500
     10 C22         -6.8260    -1.1240     0.8000 ca         1 27U      -0.108000
     11 N1          -1.6600     1.3080     0.1030 n          1 27U      -0.405800
     12 C7          -0.1700     1.3190     0.1860 c5         1 27U       0.030700
     13 C8           0.4660     0.1920     1.0660 c          1 27U       0.609100
     14 O2          -0.0750    -0.4710     1.9440 o          1 27U      -0.590100
     15 C6           0.0840     2.6890     0.8850 c5         1 27U      -0.087400
     16 C5          -1.0480     3.5650     0.3010 c5         1 27U      -0.093400
     17 C4          -2.2710     2.6200     0.4110 c5         1 27U       0.109000
     18 N2           1.7870     0.0300     0.7130 ns         1 27U      -0.498900
     19 C9           2.6890    -0.9360     1.3350 c3         1 27U       0.141300
     20 C10          4.0930    -0.8190     0.7620 ca         1 27U      -0.090300
     21 C15          4.4790    -1.5990    -0.3410 ca         1 27U      -0.113500
     22 C14          5.7760    -1.4880    -0.8720 ca         1 27U      -0.077000
     23 C13          6.7110    -0.5800    -0.3220 ca         1 27U      -0.144900
     24 C16          8.1020    -0.4950    -0.8790 ce         1 27U       0.659800
     25 N3           8.6100    -1.3850    -1.6280 n2         1 27U      -0.826100
     26 N4           8.8110     0.6340    -0.6570 nv         1 27U      -1.076200
     27 C12          6.3170     0.1870     0.8010 ca         1 27U      -0.077000
     28 C11          5.0200     0.0730     1.3300 ca         1 27U      -0.113500
     29 H2          -4.2140     0.6680     0.7070 hc         1 27U       0.061200
     30 H2A         -4.2630     1.0300    -0.9500 hc         1 27U       0.061200
     31 H1          -4.3940    -1.4480    -1.5410 hc         1 27U       0.064200
     32 H1A         -4.3150    -1.8470     0.1660 hc         1 27U       0.064200
     33 H18         -6.4470    -0.4200    -2.5270 ha         1 27U       0.112000
     34 H19         -8.9120    -0.1570    -2.3470 ha         1 27U       0.111500
     35 H20        -10.0520    -0.5090    -0.1570 ha         1 27U       0.112000
     36 H21         -8.7160    -1.1260     1.8560 ha         1 27U       0.111500
     37 H22         -6.2500    -1.3910     1.6830 ha         1 27U       0.112000
     38 H7           0.2660     1.2900    -0.8220 h1         1 27U       0.061700
     39 H6          -0.0110     2.6090     1.9760 hc         1 27U       0.062200
     40 H6A          1.0830     3.0890     0.6750 hc         1 27U       0.062200
     41 H5          -1.1920     4.5010     0.8530 hc         1 27U       0.056200
     42 H5A         -0.8460     3.8270    -0.7440 hc         1 27U       0.056200
     43 H4          -3.0590     2.9020    -0.2990 h1         1 27U       0.051700
     44 H4A         -2.6920     2.6220     1.4250 h1         1 27U       0.051700
     45 HN2          2.1510     0.6230    -0.0230 hn         1 27U       0.313500
     46 H9           2.7130    -0.7590     2.4180 h1         1 27U       0.070700
     47 H9A          2.3000    -1.9490     1.1660 h1         1 27U       0.070700
     48 H15          3.7750    -2.2970    -0.7890 ha         1 27U       0.116000
     49 H14          6.0500    -2.1080    -1.7240 ha         1 27U       0.127000
     50 HN3          9.6150    -1.1970    -1.7050 hn         1 27U       0.371400
     51 HN4          8.2630     1.4210    -0.3290 hn         1 27U       0.459500
     52 HN4A         9.5180     0.8610    -1.3470 hn         1 27U       0.459500
     53 H12          7.0150     0.8700     1.2800 ha         1 27U       0.127000
     54 H11          4.7370     0.6780     2.1900 ha         1 27U       0.116000
@<TRIPOS>BOND
     1     1     2 2   
     2     1     3 1   
     3     1    11 1   
     4     3     4 1   
     5     3    29 1   
     6     3    30 1   
     7     4     5 1   
     8     4    31 1   
     9     4    32 1   
    10     5     6 ar  
    11     5    10 ar  
    12     6     7 ar  
    13     6    33 1   
    14     7     8 ar  
    15     7    34 1   
    16     8     9 ar  
    17     8    35 1   
    18     9    10 ar  
    19     9    36 1   
    20    10    37 1   
    21    11    12 1   
    22    11    17 1   
    23    12    13 1   
    24    12    15 1   
    25    12    38 1   
    26    13    14 2   
    27    13    18 1   
    28    15    16 1   
    29    15    39 1   
    30    15    40 1   
    31    16    17 1   
    32    16    41 1   
    33    16    42 1   
    34    17    43 1   
    35    17    44 1   
    36    18    19 1   
    37    18    45 1   
    38    19    20 1   
    39    19    46 1   
    40    19    47 1   
    41    20    21 ar  
    42    20    28 ar  
    43    21    22 ar  
    44    21    48 1   
    45    22    23 ar  
    46    22    49 1   
    47    23    24 1   
    48    23    27 ar  
    49    24    25 2   
    50    24    26 1   
    51    25    50 1   
    52    26    51 1   
    53    26    52 1   
    54    27    28 ar  
    55    27    53 1   
    56    28    54 1   
@<TRIPOS>SUBSTRUCTURE
     1 27U         1 TEMP              0 ****  ****    0 ROOT
