@<TRIPOS>MOLECULE
27U
   54    56     1     0     0
SMALL
bcc


@<TRIPOS>ATOM
      1 C3          -2.3550     0.2170    -0.4770 c          1 27U       0.677100
      2 O1          -1.8690    -0.7630    -1.0300 o          1 27U      -0.608100
      3 C2          -3.8290     0.3210    -0.1520 c3         1 27U      -0.148400
      4 C1          -4.5970    -0.9630    -0.4530 c3         1 27U      -0.020100
      5 C17         -6.0560    -0.8080    -0.1200 ca         1 27U      -0.084300
      6 C18         -6.9360    -0.2340    -1.0360 ca         1 27U      -0.126000
      7 C19         -8.2770    -0.0570    -0.7230 ca         1 27U      -0.128500
      8 C20         -8.7620    -0.4530     0.5170 ca         1 27U      -0.130000
      9 C21         -7.8950    -1.0260     1.4380 ca         1 27U      -0.128500
     10 C22         -6.5540    -1.2000     1.1200 ca         1 27U      -0.126000
     11 N1          -1.5900     1.2670    -0.1330 n          1 27U      -0.472800
     12 C7          -0.1680     1.2530    -0.4120 c5         1 27U       0.030700
     13 C8           0.5210     0.0620     0.2420 c          1 27U       0.676100
     14 O2           0.2190    -0.3130     1.3630 o          1 27U      -0.590100
     15 C6           0.3310     2.5720     0.1980 c5         1 27U      -0.087400
     16 C5          -0.9000     3.4710     0.1560 c5         1 27U      -0.093400
     17 C4          -2.0380     2.5120     0.4760 c5         1 27U       0.109000
     18 N2           1.5210    -0.4590    -0.4870 ns         1 27U      -0.565900
     19 C9           2.3900    -1.5180    -0.0430 c3         1 27U       0.141300
     20 C10          3.8410    -1.1120     0.0200 ca         1 27U      -0.090300
     21 C15          4.8330    -2.0670    -0.1940 ca         1 27U      -0.131500
     22 C14          6.1730    -1.7320    -0.1120 ca         1 27U      -0.095000
     23 C13          6.5620    -0.4250     0.1720 ca         1 27U      -0.144900
     24 C16          8.0110    -0.0900     0.2400 ce         1 27U       0.659800
     25 N3           8.8440    -1.0210     0.5080 n2         1 27U      -0.826100
     26 N4           8.3150     1.2290     0.0500 nv         1 27U      -0.965800
     27 C12          5.5720     0.5300     0.3900 ca         1 27U      -0.095000
     28 C11          4.2290     0.1890     0.3170 ca         1 27U      -0.131500
     29 H2          -3.9510     0.5960     0.9000 hc         1 27U       0.061200
     30 H2A         -4.2580     1.1510    -0.7230 hc         1 27U       0.061200
     31 H1          -4.4840    -1.2170    -1.5080 hc         1 27U       0.064200
     32 H1A         -4.1730    -1.7900     0.1190 hc         1 27U       0.064200
     33 H18         -6.5680     0.0750    -2.0070 ha         1 27U       0.130000
     34 H19         -8.9450     0.3860    -1.4510 ha         1 27U       0.129500
     35 H20         -9.8080    -0.3190     0.7610 ha         1 27U       0.130000
     36 H21         -8.2630    -1.3440     2.4050 ha         1 27U       0.129500
     37 H22         -5.8880    -1.6540     1.8450 ha         1 27U       0.130000
     38 H7           0.0050     1.2450    -1.4930 h1         1 27U       0.061700
     39 H6           0.6420     2.4180     1.2330 hc         1 27U       0.062200
     40 H6A          1.1800     2.9730    -0.3530 hc         1 27U       0.062200
     41 H5          -0.8440     4.2980     0.8620 hc         1 27U       0.056200
     42 H5A         -1.0340     3.8890    -0.8440 hc         1 27U       0.056200
     43 H4          -2.9880     2.8410     0.0550 h1         1 27U       0.051700
     44 H4A         -2.1700     2.3950     1.5560 h1         1 27U       0.051700
     45 HN2          1.6630    -0.1130    -1.4230 hn         1 27U       0.313500
     46 H9           2.0550    -1.8390     0.9440 h1         1 27U       0.070700
     47 H9A          2.2840    -2.3820    -0.7030 h1         1 27U       0.070700
     48 H15          4.5530    -3.0850    -0.4380 ha         1 27U       0.134000
     49 H14          6.9300    -2.4850    -0.2840 ha         1 27U       0.145000
     50 HN3          9.8000    -0.6750     0.4920 hn         1 27U       0.371400
     51 HN4          7.7010     1.7850    -0.5220 hn         1 27U       0.404300
     52 HN4A         9.2880     1.4660    -0.0600 hn         1 27U       0.404300
     53 H12          5.8350     1.5500     0.6390 ha         1 27U       0.145000
     54 H11          3.4830     0.9550     0.4900 ha         1 27U       0.134000
@<TRIPOS>BOND
     1     1     2 2   
     2     1     3 1   
     3     1    11 1   
     4     3     4 1   
     5     3    29 1   
     6     3    30 1   
     7     4     5 1   
     8     4    31 1   
     9     4    32 1   
    10     5     6 ar  
    11     5    10 ar  
    12     6     7 ar  
    13     6    33 1   
    14     7     8 ar  
    15     7    34 1   
    16     8     9 ar  
    17     8    35 1   
    18     9    10 ar  
    19     9    36 1   
    20    10    37 1   
    21    11    12 1   
    22    11    17 1   
    23    12    13 1   
    24    12    15 1   
    25    12    38 1   
    26    13    14 2   
    27    13    18 1   
    28    15    16 1   
    29    15    39 1   
    30    15    40 1   
    31    16    17 1   
    32    16    41 1   
    33    16    42 1   
    34    17    43 1   
    35    17    44 1   
    36    18    19 1   
    37    18    45 1   
    38    19    20 1   
    39    19    46 1   
    40    19    47 1   
    41    20    21 ar  
    42    20    28 ar  
    43    21    22 ar  
    44    21    48 1   
    45    22    23 ar  
    46    22    49 1   
    47    23    24 1   
    48    23    27 ar  
    49    24    25 2   
    50    24    26 1   
    51    25    50 1   
    52    26    51 1   
    53    26    52 1   
    54    27    28 ar  
    55    27    53 1   
    56    28    54 1   
@<TRIPOS>SUBSTRUCTURE
     1 27U         1 TEMP              0 ****  ****    0 ROOT
