@<TRIPOS>MOLECULE
27V
   47    48     1     0     0
SMALL
bcc


@<TRIPOS>ATOM
      1 OAG         -1.5010     0.2040     2.2030 o          1 27V      -0.593500
      2 CAT         -2.0540     0.2860     1.1310 c          1 27V       0.722500
      3 NAM         -3.2640     0.8580     0.9320 ns         1 27V      -0.503400
      4 CAS         -3.7860     0.9250    -0.3440 c2         1 27V       0.539800
      5 NAD         -4.8990     1.4620    -0.5810 n2         1 27V      -0.832100
      6 SAP         -2.6660     0.1630    -1.4700 ss         1 27V      -0.294300
      7 CAY         -1.4440    -0.2590    -0.1670 c5         1 27V       0.018300
      8 CAX         -0.1100     0.4440    -0.4870 c6         1 27V       0.125700
      9 NAN         -0.2030     1.8590    -0.2500 ns         1 27V      -0.561900
     10 CAQ         -0.0110     2.7930    -1.2070 c          1 27V       0.678100
     11 OAE          0.1370     2.5220    -2.3870 o          1 27V      -0.600100
     12 CAC         -0.0050     4.2180    -0.7130 c3         1 27V      -0.180100
     13 CAI         -1.3070    -1.7440    -0.0550 c2         1 27V      -0.223200
     14 CAU         -0.1420    -2.3900    -0.0450 ce         1 27V      -0.114400
     15 CAR         -0.1250    -3.9170     0.0380 c          1 27V       0.920800
     16 OAH         -1.2220    -4.4960     0.1430 o          1 27V      -0.815800
     17 OAF          1.0010    -4.4470    -0.0150 o          1 27V      -0.815800
     18 CAL          1.1650    -1.6680    -0.1550 c6         1 27V      -0.071200
     19 CAW          1.0600    -0.2050     0.2570 c6         1 27V       0.131100
     20 OAO          2.2030     0.5330    -0.0880 os         1 27V      -0.423600
     21 CAV          3.3380     0.4070     0.7580 c3         1 27V       0.156100
     22 CAK          4.5740     0.2600    -0.1220 c3         1 27V      -0.085900
     23 CAB          4.5750    -0.9840    -0.9990 c3         1 27V      -0.086600
     24 CAJ          3.4640     1.6170     1.6800 c3         1 27V      -0.085900
     25 CAA          2.3550     1.7650     2.7110 c3         1 27V      -0.086600
     26 H1          -3.7850     1.2560     1.7040 hn         1 27V       0.338500
     27 H2          -5.1440     1.4320    -1.5640 hn         1 27V       0.411400
     28 H3           0.0790     0.3120    -1.5560 h1         1 27V       0.109700
     29 H4          -0.2100     2.1720     0.7080 hn         1 27V       0.306500
     30 H5          -0.1940     4.3160     0.3550 hc         1 27V       0.052700
     31 H6           0.9620     4.6690    -0.9340 hc         1 27V       0.052700
     32 H7          -0.7610     4.7900    -1.2500 hc         1 27V       0.052700
     33 H8          -2.2310    -2.3050     0.0270 ha         1 27V       0.166000
     34 H10          1.9170    -2.1760     0.4500 hc         1 27V       0.070700
     35 H11          1.5260    -1.7240    -1.1880 hc         1 27V       0.070700
     36 H12          0.8770    -0.1560     1.3390 h1         1 27V       0.052700
     37 H13          3.2470    -0.4970     1.3790 h1         1 27V       0.047700
     38 H14          4.6740     1.1550    -0.7440 hc         1 27V       0.034950
     39 H15          5.4520     0.2430     0.5290 hc         1 27V       0.034950
     40 H16          5.4950    -1.0450    -1.5800 hc         1 27V       0.035033
     41 H17          4.5060    -1.8930    -0.3970 hc         1 27V       0.035033
     42 H18          3.7410    -0.9860    -1.6990 hc         1 27V       0.035033
     43 H19          4.4200     1.5350     2.2050 hc         1 27V       0.034950
     44 H20          3.5290     2.5230     1.0690 hc         1 27V       0.034950
     45 H21          1.3890     1.9750     2.2540 hc         1 27V       0.035033
     46 H22          2.2460     0.8620     3.3140 hc         1 27V       0.035033
     47 H23          2.5670     2.5900     3.3920 hc         1 27V       0.035033
@<TRIPOS>BOND
     1     1     2 2   
     2     2     3 1   
     3     2     7 1   
     4     3     4 1   
     5     3    26 1   
     6     4     5 2   
     7     4     6 1   
     8     5    27 1   
     9     6     7 1   
    10     7     8 1   
    11     7    13 1   
    12     8     9 1   
    13     8    19 1   
    14     8    28 1   
    15     9    10 1   
    16     9    29 1   
    17    10    11 2   
    18    10    12 1   
    19    12    30 1   
    20    12    31 1   
    21    12    32 1   
    22    13    14 2   
    23    13    33 1   
    24    14    15 1   
    25    14    18 1   
    26    15    16 1   
    27    15    17 1   
    28    18    19 1   
    29    18    34 1   
    30    18    35 1   
    31    19    20 1   
    32    19    36 1   
    33    20    21 1   
    34    21    22 1   
    35    21    24 1   
    36    21    37 1   
    37    22    23 1   
    38    22    38 1   
    39    22    39 1   
    40    23    40 1   
    41    23    41 1   
    42    23    42 1   
    43    24    25 1   
    44    24    43 1   
    45    24    44 1   
    46    25    45 1   
    47    25    46 1   
    48    25    47 1   
@<TRIPOS>SUBSTRUCTURE
     1 27V         1 TEMP              0 ****  ****    0 ROOT
