@<TRIPOS>MOLECULE
27V
   47    48     1     0     0
SMALL
No Charge or Current Charge


@<TRIPOS>ATOM
      1 OAG         -1.5020     0.4300     2.2530 o          1 27V      -0.518000
      2 CAT         -1.9720     0.4570     1.1250 c          1 27V       0.580000
      3 NAM         -3.1330     1.0930     0.8230 ns         1 27V      -0.436400
      4 CAS         -3.6880     1.0280    -0.4140 c2         1 27V       0.539800
      5 NAD         -4.7890     1.5810    -0.7220 n2         1 27V      -0.832100
      6 SAP         -2.7460     0.0020    -1.4950 ss         1 27V      -0.342200
      7 CAY         -1.4110    -0.1920    -0.1900 c5         1 27V       0.066200
      8 CAX         -0.0530     0.4670    -0.6100 c6         1 27V       0.125700
      9 NAN         -0.0400     1.9390    -0.4320 ns         1 27V      -0.494900
     10 CAQ         -0.5630     2.8800    -1.2860 c          1 27V       0.611100
     11 OAE         -1.0660     2.5990    -2.3610 o          1 27V      -0.600100
     12 CAC         -0.4410     4.3160    -0.7910 c3         1 27V      -0.180100
     13 CAI         -1.3600    -1.7280    -0.0400 c2         1 27V      -0.273200
     14 CAU         -0.1660    -2.3930    -0.0070 ce         1 27V      -0.114400
     15 CAR         -0.1070    -3.9080     0.1560 c          1 27V       0.710200
     16 OAH         -1.1560    -4.5250     0.2830 o          1 27V      -0.710500
     17 OAF          0.9800    -4.4670     0.1440 o          1 27V      -0.710500
     18 CAL          1.1880    -1.6660    -0.1320 c6         1 27V      -0.071200
     19 CAW          1.0950    -0.1670     0.2110 c6         1 27V       0.154300
     20 OAO          2.3450     0.5110    -0.0690 os         1 27V      -0.470000
     21 CAV          3.4640     0.2880     0.8160 c3         1 27V       0.179300
     22 CAK          4.7330     0.2080    -0.0670 c3         1 27V      -0.085900
     23 CAB          4.7340    -0.9760    -1.0590 c3         1 27V      -0.086600
     24 CAJ          3.5390     1.4570     1.8360 c3         1 27V      -0.085900
     25 CAA          2.3630     1.5550     2.8300 c3         1 27V      -0.086600
     26 H1          -3.6290     1.5740     1.5570 hn         1 27V       0.338500
     27 H2          -4.9940     1.3510    -1.7060 hn         1 27V       0.411400
     28 H3           0.1310     0.2470    -1.6720 h1         1 27V       0.109700
     29 H4           0.4260     2.3040     0.3900 hn         1 27V       0.306500
     30 H5          -0.9150     4.3950     0.1940 hc         1 27V       0.052700
     31 H6           0.6100     4.5260    -0.5610 hc         1 27V       0.052700
     32 H7          -0.8530     5.0440    -1.4980 hc         1 27V       0.052700
     33 H8          -2.2940    -2.2870     0.0550 ha         1 27V       0.216000
     34 H10          1.9250    -2.1370     0.5310 hc         1 27V       0.070700
     35 H11          1.5680    -1.7890    -1.1550 hc         1 27V       0.070700
     36 H12          0.8670    -0.0660     1.2790 h1         1 27V       0.052700
     37 H13          3.3660    -0.6570     1.3660 h1         1 27V       0.047700
     38 H14          4.8510     1.1450    -0.6250 hc         1 27V       0.034950
     39 H15          5.6120     0.1150     0.5830 hc         1 27V       0.034950
     40 H16          5.6810    -1.0100    -1.6100 hc         1 27V       0.035033
     41 H17          4.6110    -1.9270    -0.5270 hc         1 27V       0.035033
     42 H18          3.9200    -0.8770    -1.7880 hc         1 27V       0.035033
     43 H19          4.4620     1.3460     2.4180 hc         1 27V       0.034950
     44 H20          3.6290     2.4070     1.2950 hc         1 27V       0.034950
     45 H21          1.4400     1.8570     2.3220 hc         1 27V       0.035033
     46 H22          2.1930     0.5940     3.3310 hc         1 27V       0.035033
     47 H23          2.5790     2.3070     3.5990 hc         1 27V       0.035033
@<TRIPOS>BOND
     1     1     2 2   
     2     2     3 1   
     3     2     7 1   
     4     3     4 1   
     5     3    26 1   
     6     4     5 2   
     7     4     6 1   
     8     5    27 1   
     9     6     7 1   
    10     7     8 1   
    11     7    13 1   
    12     8     9 1   
    13     8    19 1   
    14     8    28 1   
    15     9    10 1   
    16     9    29 1   
    17    10    11 2   
    18    10    12 1   
    19    12    30 1   
    20    12    31 1   
    21    12    32 1   
    22    13    14 2   
    23    13    33 1   
    24    14    15 1   
    25    14    18 1   
    26    15    16 1   
    27    15    17 1   
    28    18    19 1   
    29    18    34 1   
    30    18    35 1   
    31    19    20 1   
    32    19    36 1   
    33    20    21 1   
    34    21    22 1   
    35    21    24 1   
    36    21    37 1   
    37    22    23 1   
    38    22    38 1   
    39    22    39 1   
    40    23    40 1   
    41    23    41 1   
    42    23    42 1   
    43    24    25 1   
    44    24    43 1   
    45    24    44 1   
    46    25    45 1   
    47    25    46 1   
    48    25    47 1   
@<TRIPOS>SUBSTRUCTURE
     1 27V         1 TEMP              0 ****  ****    0 ROOT
