@<TRIPOS>MOLECULE
27W
   35    34     1     0     0
SMALL
No Charge or Current Charge


@<TRIPOS>ATOM
      1 N3           0.5040    -0.0550    -1.7830 n8         1 27W      -1.006200
      2 C11          0.4810    -0.0260    -0.2960 c3         1 27W       0.136500
      3 C12          1.8390     0.4950     0.2620 c3         1 27W      -0.060400
      4 C13          3.0960    -0.3590    -0.0810 c3         1 27W      -0.060700
      5 C15          4.3870     0.3470     0.3940 c3         1 27W      -0.086100
      6 C14          3.0210    -1.7970     0.4880 c3         1 27W      -0.086100
      7 C16         -0.7440     0.7920     0.2640 c3         1 27W       0.125300
      8 O6          -0.6450     2.1600    -0.1790 oh         1 27W      -0.652000
      9 C17         -2.1650     0.2340    -0.1090 c3         1 27W      -0.090700
     10 C23         -3.2940     1.1130     0.5060 c3         1 27W      -0.085100
     11 C18         -2.3450    -1.2650     0.2910 c3         1 27W      -0.074400
     12 C44         -3.7090    -1.8890    -0.0790 c3         1 27W      -0.089100
     13 H33         -0.4280    -0.3070    -2.1260 hn         1 27W       0.394500
     14 H34          0.3710    -1.0590     0.0580 h1         1 27W       0.065700
     15 H35          2.0010     1.5180    -0.1010 hc         1 27W       0.044200
     16 H36          1.7610     0.5700     1.3540 hc         1 27W       0.044200
     17 H37          3.1630    -0.4410    -1.1740 hc         1 27W       0.065700
     18 H38          5.2740    -0.2290     0.1040 hc         1 27W       0.029867
     19 H39          4.4730     1.3440    -0.0550 hc         1 27W       0.029867
     20 H40          4.3920     0.4590     1.4850 hc         1 27W       0.029867
     21 H41          2.1910    -2.3580     0.0440 hc         1 27W       0.029867
     22 H42          3.9440    -2.3480     0.2670 hc         1 27W       0.029867
     23 H43          2.8860    -1.7800     1.5760 hc         1 27W       0.029867
     24 H44         -0.6670     0.7620     1.3610 h1         1 27W       0.077700
     25 H45         -1.0660     2.2020    -1.0630 ho         1 27W       0.431000
     26 H46         -2.2740     0.2920    -1.1990 hc         1 27W       0.035700
     27 H47         -3.1880     2.1670     0.2240 hc         1 27W       0.038367
     28 H48         -4.2820     0.7970     0.1540 hc         1 27W       0.038367
     29 H49         -3.2820     1.0510     1.6010 hc         1 27W       0.038367
     30 H50         -1.5820    -1.8710    -0.2090 hc         1 27W       0.041200
     31 H51         -2.1810    -1.3800     1.3700 hc         1 27W       0.041200
     32 H52         -4.5190    -1.4690     0.5290 hc         1 27W       0.033700
     33 H53         -3.9400    -1.7220    -1.1380 hc         1 27W       0.033700
     34 H54         -3.6890    -2.9710     0.0980 hc         1 27W       0.033700
     35 H2           0.6430     0.9020    -2.1240 hn         1 27W       0.394500
@<TRIPOS>BOND
     1     1     2 1   
     2     1    13 1   
     3     1    35 1   
     4     2     3 1   
     5     2     7 1   
     6     2    14 1   
     7     3     4 1   
     8     3    15 1   
     9     3    16 1   
    10     4     5 1   
    11     4     6 1   
    12     4    17 1   
    13     5    18 1   
    14     5    19 1   
    15     5    20 1   
    16     6    21 1   
    17     6    22 1   
    18     6    23 1   
    19     7     8 1   
    20     7     9 1   
    21     7    24 1   
    22     8    25 1   
    23     9    10 1   
    24     9    11 1   
    25     9    26 1   
    26    10    27 1   
    27    10    28 1   
    28    10    29 1   
    29    11    12 1   
    30    11    30 1   
    31    11    31 1   
    32    12    32 1   
    33    12    33 1   
    34    12    34 1   
@<TRIPOS>SUBSTRUCTURE
     1 27W         1 TEMP              0 ****  ****    0 ROOT
