@<TRIPOS>MOLECULE
27W
   35    34     1     0     0
SMALL
abcg2


@<TRIPOS>ATOM
      1 N3           0.4650    -0.0790    -1.7550 n8         1 27W      -1.006200
      2 C11          0.4450    -0.0500    -0.2980 c3         1 27W       0.136500
      3 C12          1.7810     0.4830     0.2190 c3         1 27W      -0.060400
      4 C13          2.9900    -0.4050    -0.0820 c3         1 27W      -0.060700
      5 C15          4.2840     0.3610     0.1820 c3         1 27W      -0.086100
      6 C14          2.9670    -1.6920     0.7360 c3         1 27W      -0.086100
      7 C16         -0.7300     0.7310     0.3230 c3         1 27W       0.125300
      8 O6          -0.5930     2.1230     0.0880 oh         1 27W      -0.652000
      9 C17         -2.1240     0.2360    -0.1000 c3         1 27W      -0.090700
     10 C23         -3.2080     1.0440     0.6100 c3         1 27W      -0.085100
     11 C18         -2.2950    -1.2670     0.1550 c3         1 27W      -0.074400
     12 C44         -3.6550    -1.8210    -0.2510 c3         1 27W      -0.089100
     13 H33         -0.4050    -0.4440    -2.1230 hn         1 27W       0.394500
     14 H34          0.3450    -1.0860     0.0410 h1         1 27W       0.065700
     15 H35          1.9510     1.4780    -0.2050 hc         1 27W       0.044200
     16 H36          1.7120     0.6270     1.3030 hc         1 27W       0.044200
     17 H37          2.9580    -0.6680    -1.1440 hc         1 27W       0.065700
     18 H38          5.1610    -0.2590    -0.0150 hc         1 27W       0.029867
     19 H39          4.3570     1.2500    -0.4470 hc         1 27W       0.029867
     20 H40          4.3390     0.6860     1.2240 hc         1 27W       0.029867
     21 H41          2.0730    -2.2890     0.5500 hc         1 27W       0.029867
     22 H42          3.8280    -2.3220     0.5060 hc         1 27W       0.029867
     23 H43          2.9980    -1.4700     1.8060 hc         1 27W       0.029867
     24 H44         -0.6510     0.6150     1.4120 h1         1 27W       0.077700
     25 H45         -0.7660     2.2890    -0.8450 ho         1 27W       0.431000
     26 H46         -2.2310     0.4060    -1.1810 hc         1 27W       0.035700
     27 H47         -3.0930     2.1130     0.4380 hc         1 27W       0.038367
     28 H48         -4.2040     0.7690     0.2660 hc         1 27W       0.038367
     29 H49         -3.1730     0.8740     1.6900 hc         1 27W       0.038367
     30 H50         -1.5320    -1.8250    -0.3930 hc         1 27W       0.041200
     31 H51         -2.1150    -1.4720     1.2160 hc         1 27W       0.041200
     32 H52         -4.4690    -1.4120     0.3470 hc         1 27W       0.033700
     33 H53         -3.8710    -1.6000    -1.2990 hc         1 27W       0.033700
     34 H54         -3.6790    -2.9050    -0.1330 hc         1 27W       0.033700
     35 H2           0.5660     0.8580    -2.1270 hn         1 27W       0.394500
@<TRIPOS>BOND
     1     1     2 1   
     2     1    13 1   
     3     1    35 1   
     4     2     3 1   
     5     2     7 1   
     6     2    14 1   
     7     3     4 1   
     8     3    15 1   
     9     3    16 1   
    10     4     5 1   
    11     4     6 1   
    12     4    17 1   
    13     5    18 1   
    14     5    19 1   
    15     5    20 1   
    16     6    21 1   
    17     6    22 1   
    18     6    23 1   
    19     7     8 1   
    20     7     9 1   
    21     7    24 1   
    22     8    25 1   
    23     9    10 1   
    24     9    11 1   
    25     9    26 1   
    26    10    27 1   
    27    10    28 1   
    28    10    29 1   
    29    11    12 1   
    30    11    30 1   
    31    11    31 1   
    32    12    32 1   
    33    12    33 1   
    34    12    34 1   
@<TRIPOS>SUBSTRUCTURE
     1 27W         1 TEMP              0 ****  ****    0 ROOT
