@<TRIPOS>MOLECULE
27X
   32    34     1     0     0
SMALL
No Charge or Current Charge


@<TRIPOS>ATOM
      1 C01         17.4870    19.4480    28.4630 ca         1 27X       0.393000
      2 C02         16.2100    18.8390    28.4190 ca         1 27X      -0.281000
      3 C03         16.0590    17.4500    28.5880 ca         1 27X       0.404000
      4 C04         17.2200    16.6660    28.7290 ca         1 27X      -0.137200
      5 C05         18.4420    17.2990    28.8450 ca         1 27X      -0.031000
      6 C06         18.6600    18.6640    28.7070 ca         1 27X       0.199000
      7 N07         17.4460    15.2810    29.0500 n          1 27X      -0.192600
      8 C08         18.8190    15.0490    29.2850 c          1 27X       0.314800
      9 C09         19.4370    16.4010    29.1560 ca         1 27X      -0.135000
     10 O10         19.3760    13.9880    29.5210 o          1 27X      -0.337000
     11 C11         20.7490    16.8670    29.3000 ca         1 27X       0.000000
     12 N12         19.9370    19.1430    28.8330 nb         1 27X      -0.580000
     13 C13         16.4640    14.1960    28.8740 c3         1 27X       0.069900
     14 C14         20.9690    18.2660    29.1180 ca         1 27X       0.259500
     15 N15         17.5520    20.8160    28.3010 nv         1 27X      -1.075000
     16 N16         14.8060    16.9110    28.5980 nv         1 27X      -1.100000
     17 C17         22.3840    18.8350    29.2530 c          1 27X       0.500600
     18 O18         22.6510    20.0260    29.1190 o          1 27X      -0.459000
     19 O19         23.3430    17.8880    29.5400 os         1 27X      -0.453100
     20 C20         24.7100    18.3190    29.6870 c3         1 27X       0.156900
     21 H02         15.3300    19.4550    28.2740 ha         1 27X       0.116000
     22 H151        18.4740    21.2340    28.1860 hn         1 27X       0.483500
     23 H152        16.7630    21.3100    27.8900 hn         1 27X       0.483500
     24 H161        14.6900    15.9620    28.9420 hn         1 27X       0.477000
     25 H162        14.0040    17.5310    28.6860 hn         1 27X       0.477000
     26 H131        16.9710    13.2230    28.8590 h1         1 27X       0.046367
     27 H132        15.7470    14.2110    29.7040 h1         1 27X       0.046367
     28 H133        15.9310    14.3300    27.9250 h1         1 27X       0.046367
     29 H11         21.5570    16.1820    29.5390 ha         1 27X       0.155000
     30 H201        25.3590    17.4630    29.9130 h1         1 27X       0.051367
     31 H202        25.0750    18.7870    28.7640 h1         1 27X       0.051367
     32 H203        24.8070    19.0430    30.5070 h1         1 27X       0.051367
@<TRIPOS>BOND
     1     1     2 ar  
     2     1     6 ar  
     3     1    15 1   
     4     2     3 ar  
     5     2    21 1   
     6     3     4 ar  
     7     3    16 1   
     8     4     5 ar  
     9     4     7 1   
    10     5     6 ar  
    11     5     9 ar  
    12     6    12 ar  
    13     7     8 1   
    14     7    13 1   
    15     8     9 1   
    16     8    10 2   
    17     9    11 ar  
    18    11    14 ar  
    19    11    29 1   
    20    12    14 ar  
    21    13    26 1   
    22    13    27 1   
    23    13    28 1   
    24    14    17 1   
    25    15    22 1   
    26    15    23 1   
    27    16    24 1   
    28    16    25 1   
    29    17    18 2   
    30    17    19 1   
    31    19    20 1   
    32    20    30 1   
    33    20    31 1   
    34    20    32 1   
@<TRIPOS>SUBSTRUCTURE
     1 27X         1 TEMP              0 ****  ****    0 ROOT
