@<TRIPOS>MOLECULE
27X
   32    34     1     0     0
SMALL
abcg2


@<TRIPOS>ATOM
      1 C01         17.5350    19.4680    28.5240 ca         1 27X       0.393000
      2 C02         16.3080    18.8380    28.4260 ca         1 27X      -0.281000
      3 C03         16.0940    17.4240    28.5740 ca         1 27X       0.404000
      4 C04         17.2160    16.6370    28.8230 ca         1 27X      -0.137200
      5 C05         18.4420    17.2710    28.9160 ca         1 27X      -0.031000
      6 C06         18.6950    18.6400    28.7860 ca         1 27X       0.199000
      7 N07         17.4690    15.2520    29.0150 n          1 27X      -0.192600
      8 C08         18.8200    15.0150    29.2280 c          1 27X       0.314800
      9 C09         19.4690    16.3520    29.1630 ca         1 27X      -0.135000
     10 O10         19.3290    13.9110    29.4230 o          1 27X      -0.337000
     11 C11         20.7510    16.8310    29.2790 ca         1 27X       0.000000
     12 N12         19.9410    19.1010    28.8960 nb         1 27X      -0.580000
     13 C13         16.4850    14.1900    28.9820 c3         1 27X       0.069900
     14 C14         20.9320    18.2300    29.1350 ca         1 27X       0.259500
     15 N15         17.6960    20.8230    28.4350 nv         1 27X      -1.075000
     16 N16         14.8260    16.9440    28.4200 nv         1 27X      -1.100000
     17 C17         22.2920    18.8380    29.2500 c          1 27X       0.500600
     18 O18         22.5300    20.0220    29.1510 o          1 27X      -0.459000
     19 O19         23.2350    17.9150    29.4800 os         1 27X      -0.453100
     20 C20         24.5870    18.3940    29.6210 c3         1 27X       0.156900
     21 H02         15.4320    19.4450    28.2280 ha         1 27X       0.116000
     22 H151        18.6340    21.1520    28.2670 hn         1 27X       0.483500
     23 H152        16.9650    21.3600    27.9970 hn         1 27X       0.483500
     24 H161        14.5970    16.0210    28.7460 hn         1 27X       0.477000
     25 H162        14.0660    17.6040    28.4450 hn         1 27X       0.477000
     26 H131        17.0090    13.2450    29.1030 h1         1 27X       0.046367
     27 H132        15.7650    14.2990    29.7950 h1         1 27X       0.046367
     28 H133        15.9570    14.1840    28.0270 h1         1 27X       0.046367
     29 H11         21.5990    16.1900    29.4700 ha         1 27X       0.155000
     30 H201        25.1890    17.5090    29.8040 h1         1 27X       0.051367
     31 H202        24.9070    18.8930    28.7070 h1         1 27X       0.051367
     32 H203        24.6550    19.0840    30.4610 h1         1 27X       0.051367
@<TRIPOS>BOND
     1     1     2 ar  
     2     1     6 ar  
     3     1    15 1   
     4     2     3 ar  
     5     2    21 1   
     6     3     4 ar  
     7     3    16 1   
     8     4     5 ar  
     9     4     7 1   
    10     5     6 ar  
    11     5     9 ar  
    12     6    12 ar  
    13     7     8 1   
    14     7    13 1   
    15     8     9 1   
    16     8    10 2   
    17     9    11 ar  
    18    11    14 ar  
    19    11    29 1   
    20    12    14 ar  
    21    13    26 1   
    22    13    27 1   
    23    13    28 1   
    24    14    17 1   
    25    15    22 1   
    26    15    23 1   
    27    16    24 1   
    28    16    25 1   
    29    17    18 2   
    30    17    19 1   
    31    19    20 1   
    32    20    30 1   
    33    20    31 1   
    34    20    32 1   
@<TRIPOS>SUBSTRUCTURE
     1 27X         1 TEMP              0 ****  ****    0 ROOT
