@<TRIPOS>MOLECULE
27Y
   13    13     1     0     0
SMALL
bcc


@<TRIPOS>ATOM
      1 O01         -2.6500    -1.8660    -0.0350 oh         1 27Y      -0.478100
      2 C02         -1.7950    -0.8380    -0.0150 cc         1 27Y       0.015900
      3 C03         -0.4490    -1.0210    -0.0320 cd         1 27Y      -0.106000
      4 C04          0.4050     0.1130    -0.0090 cd         1 27Y      -0.102300
      5 BR           2.2680    -0.1290    -0.0290 br         1 27Y      -0.050700
      6 C06         -0.1190     1.3580     0.0290 cc         1 27Y       0.001600
      7 N07         -1.4720     1.5070     0.0430 ns         1 27Y      -0.412100
      8 C08         -2.3800     0.4920     0.0240 c          1 27Y       0.653700
      9 O09         -3.5960     0.6730     0.0400 o          1 27Y      -0.646500
     10 H1          -3.5520    -1.5130    -0.0200 ho         1 27Y       0.453000
     11 H2          -0.0400    -2.0230    -0.0620 ha         1 27Y       0.168000
     12 H4           0.4610     2.2680     0.0470 h4         1 27Y       0.169000
     13 H3          -1.8420     2.4480     0.0730 hn         1 27Y       0.334500
@<TRIPOS>BOND
     1     1     2 1   
     2     1    10 1   
     3     2     3 2   
     4     2     8 1   
     5     3     4 1   
     6     3    11 1   
     7     4     5 1   
     8     4     6 2   
     9     6     7 1   
    10     6    12 1   
    11     7     8 1   
    12     7    13 1   
    13     8     9 2   
@<TRIPOS>SUBSTRUCTURE
     1 27Y         1 TEMP              0 ****  ****    0 ROOT
