@<TRIPOS>MOLECULE
27Y
   13    13     1     0     0
SMALL
No Charge or Current Charge


@<TRIPOS>ATOM
      1 O01         -2.6740    -1.8890    -0.0360 oh         1 27Y      -0.517100
      2 C02         -1.7900    -0.8580    -0.0160 cc         1 27Y       0.015900
      3 C03         -0.4220    -1.0520    -0.0330 cd         1 27Y      -0.156000
      4 C04          0.4520     0.0970    -0.0090 cd         1 27Y      -0.102300
      5 Br           2.3230    -0.1350    -0.0310 br         1 27Y      -0.050700
      6 C06         -0.1090     1.3600     0.0290 cc         1 27Y      -0.048400
      7 N07         -1.4900     1.5230     0.0440 ns         1 27Y      -0.345100
      8 C08         -2.4060     0.5030     0.0250 c          1 27Y       0.511200
      9 O09         -3.6120     0.7120     0.0400 o          1 27Y      -0.571000
     10 H1          -3.5740    -1.4850    -0.0180 ho         1 27Y       0.492000
     11 H2          -0.0140    -2.0590    -0.0630 ha         1 27Y       0.218000
     12 H4           0.4430     2.2960     0.0490 h4         1 27Y       0.219000
     13 H3          -1.8870     2.4560     0.0720 hn         1 27Y       0.334500
@<TRIPOS>BOND
     1     1     2 1   
     2     1    10 1   
     3     2     3 2   
     4     2     8 1   
     5     3     4 1   
     6     3    11 1   
     7     4     5 1   
     8     4     6 2   
     9     6     7 1   
    10     6    12 1   
    11     7     8 1   
    12     7    13 1   
    13     8     9 2   
@<TRIPOS>SUBSTRUCTURE
     1 27Y         1 TEMP              0 ****  ****    0 ROOT
