@<TRIPOS>MOLECULE
27Z
   31    32     1     0     0
SMALL
No Charge or Current Charge


@<TRIPOS>ATOM
      1 C1           5.5550     0.5080     0.0510 c          1 27Z       0.677700
      2 N1           1.8640     0.6480     0.2700 nc         1 27Z      -0.778000
      3 O1          -5.9630    -1.1080    -0.1960 o          1 27Z      -0.531000
      4 S1           3.4110    -1.3080    -0.5780 ss         1 27Z      -0.101400
      5 N2           3.2330     2.2830     0.8050 nv         1 27Z      -1.032900
      6 O2          -5.4600     1.3190    -0.8810 o          1 27Z      -0.531000
      7 S2          -5.1720     0.1170    -0.0990 sy         1 27Z       1.147600
      8 N3           0.6770    -1.2410    -0.3280 nu         1 27Z      -0.922900
      9 N4          -5.3310     0.5680     1.4620 n8         1 27Z      -0.995100
     10 C12          4.1270     0.2040    -0.0330 cd         1 27Z      -0.439600
     11 C13          3.1380     1.0550     0.3380 cc         1 27Z       0.669900
     12 C14          1.8500    -0.5690    -0.2180 cd         1 27Z       0.759300
     13 C15         -0.6700    -0.8820    -0.2660 ca         1 27Z       0.361000
     14 C16         -1.6120    -1.8910    -0.0160 ca         1 27Z      -0.176500
     15 C17         -2.9850    -1.5970     0.0410 ca         1 27Z       0.016500
     16 C18         -3.4260    -0.2750    -0.1640 ca         1 27Z      -0.357500
     17 C19         -2.4880     0.7410    -0.4310 ca         1 27Z       0.016500
     18 C20         -1.1180     0.4330    -0.4850 ca         1 27Z      -0.176500
     19 O21          6.0230     1.5500     0.4720 o          1 27Z      -0.650100
     20 N22          6.3540    -0.4800    -0.3750 nt         1 27Z      -0.607000
     21 HN2          2.4360     2.5900     1.3470 hn         1 27Z       0.506500
     22 HN2A         4.1530     2.5540     1.1360 hn         1 27Z       0.506500
     23 HN3          0.8400    -2.2350    -0.4440 hn         1 27Z       0.511000
     24 HN4         -6.0760    -0.0540     1.7660 hn         1 27Z       0.473500
     25 HN4A        -4.4940     0.1700     1.8800 hn         1 27Z       0.473500
     26 H16         -1.2840    -2.9140     0.1440 ha         1 27Z       0.138000
     27 H17         -3.6950    -2.4000     0.2410 ha         1 27Z       0.137500
     28 H19         -2.8120     1.7670    -0.6020 ha         1 27Z       0.137500
     29 H20         -0.4150     1.2250    -0.7140 ha         1 27Z       0.138000
     30 HN22         5.9450    -1.3350    -0.7170 hn         1 27Z       0.313500
     31 HN2B         7.3540    -0.3540    -0.3480 hn         1 27Z       0.313500
@<TRIPOS>BOND
     1     1    10 1   
     2     1    19 2   
     3     1    20 1   
     4     2    11 1   
     5     2    12 2   
     6     3     7 2   
     7     4    10 1   
     8     4    12 1   
     9     5    11 1   
    10     5    21 1   
    11     5    22 1   
    12     6     7 2   
    13     7     9 1   
    14     7    16 1   
    15     8    12 1   
    16     8    13 1   
    17     8    23 1   
    18     9    24 1   
    19     9    25 1   
    20    10    11 2   
    21    13    14 ar  
    22    13    18 ar  
    23    14    15 ar  
    24    14    26 1   
    25    15    16 ar  
    26    15    27 1   
    27    16    17 ar  
    28    17    18 ar  
    29    17    28 1   
    30    18    29 1   
    31    20    30 1   
    32    20    31 1   
@<TRIPOS>SUBSTRUCTURE
     1 27Z         1 TEMP              0 ****  ****    0 ROOT
