@<TRIPOS>MOLECULE
27Z
   31    32     1     0     0
SMALL
bcc


@<TRIPOS>ATOM
      1 C1           5.5290     0.3840     0.0210 c          1 27Z       0.744700
      2 N1           1.8350     0.7230     0.0960 nc         1 27Z      -0.778000
      3 O1          -5.8240    -0.8890    -0.8090 o          1 27Z      -0.601800
      4 S1           3.3030    -1.3670    -0.2280 ss         1 27Z      -0.246300
      5 N2           3.3390     2.4790     0.2830 nv         1 27Z      -0.922500
      6 O2          -5.2490     1.5470    -0.5170 o          1 27Z      -0.601800
      7 S2          -5.1070     0.1610    -0.1040 sy         1 27Z       1.289200
      8 N3           0.6430    -1.2940    -0.1720 nu         1 27Z      -0.729300
      9 N4          -5.6180     0.0910     1.4580 n8         1 27Z      -0.884700
     10 C12          4.0960     0.1790    -0.0110 cd         1 27Z      -0.360000
     11 C13          3.1270     1.1600     0.1370 cc         1 27Z       0.735200
     12 C14          1.7760    -0.5590    -0.0840 cd         1 27Z       0.759300
     13 C15         -0.6800    -0.8790    -0.1460 ca         1 27Z       0.222600
     14 C16         -1.6500    -1.8810    -0.2770 ca         1 27Z      -0.194500
     15 C17         -2.9920    -1.5690    -0.2730 ca         1 27Z      -0.001500
     16 C18         -3.3870    -0.2430    -0.1350 ca         1 27Z      -0.357500
     17 C19         -2.4370     0.7590    -0.0070 ca         1 27Z      -0.001500
     18 C20         -1.0870     0.4500    -0.0090 ca         1 27Z      -0.194500
     19 O21          6.0040     1.5130     0.1770 o          1 27Z      -0.650100
     20 N22          6.3210    -0.6980    -0.1240 nt         1 27Z      -0.674000
     21 HN2          2.5780     3.0440     0.6180 hn         1 27Z       0.451300
     22 HN2A         4.2750     2.7850     0.4860 hn         1 27Z       0.451300
     23 HN3          0.7710    -2.2890    -0.2860 hn         1 27Z       0.455800
     24 HN4         -5.5660    -0.8380     1.8610 hn         1 27Z       0.418300
     25 HN4A        -5.1790     0.7760     2.0630 hn         1 27Z       0.418300
     26 H16         -1.3470    -2.9150    -0.3930 ha         1 27Z       0.156000
     27 H17         -3.7190    -2.3630    -0.3840 ha         1 27Z       0.155500
     28 H19         -2.7320     1.7950     0.0920 ha         1 27Z       0.155500
     29 H20         -0.3620     1.2410     0.0880 ha         1 27Z       0.156000
     30 HN22         5.9780    -1.6350    -0.2470 hn         1 27Z       0.313500
     31 HN2B         7.3200    -0.5810    -0.1150 hn         1 27Z       0.313500
@<TRIPOS>BOND
     1     1    10 1   
     2     1    19 2   
     3     1    20 1   
     4     2    11 1   
     5     2    12 2   
     6     3     7 2   
     7     4    10 1   
     8     4    12 1   
     9     5    11 1   
    10     5    21 1   
    11     5    22 1   
    12     6     7 2   
    13     7     9 1   
    14     7    16 1   
    15     8    12 1   
    16     8    13 1   
    17     8    23 1   
    18     9    24 1   
    19     9    25 1   
    20    10    11 2   
    21    13    14 ar  
    22    13    18 ar  
    23    14    15 ar  
    24    14    26 1   
    25    15    16 ar  
    26    15    27 1   
    27    16    17 ar  
    28    17    18 ar  
    29    17    28 1   
    30    18    29 1   
    31    20    30 1   
    32    20    31 1   
@<TRIPOS>SUBSTRUCTURE
     1 27Z         1 TEMP              0 ****  ****    0 ROOT
