@<TRIPOS>MOLECULE
280
   14    14     1     0     0
SMALL
abcg2


@<TRIPOS>ATOM
      1 C1           1.0870     1.9660    -0.0010 c3         1 280       0.053900
      2 N2           0.8340     0.5400     0.0060 na         1 280      -0.139500
      3 C3           1.7590    -0.4230     0.0470 cc         1 280       0.416400
      4 N4           1.2320    -1.6330     0.0400 nd         1 280      -0.682000
      5 C5          -0.1000    -1.4380    -0.0090 cd         1 280       0.324900
      6 C6          -0.3900    -0.0890    -0.0330 cc         1 280      -0.342600
      7 C7          -1.6620     0.5920    -0.0830 c          1 280       0.613500
      8 O8          -2.7280     0.0120    -0.1230 o          1 280      -0.514100
      9 H11          0.7140     2.4190    -0.9170 h1         1 280       0.058033
     10 H12          0.6160     2.4430     0.8560 h1         1 280       0.058033
     11 H13          2.1590     2.1280     0.0560 h1         1 280       0.058033
     12 H3           2.8160    -0.2010     0.0810 h5         1 280       0.056100
     13 H5          -0.8030    -2.2570    -0.0260 h4         1 280       0.053100
     14 H7          -1.6180     1.6930    -0.0820 h4         1 280      -0.015800
@<TRIPOS>BOND
     1     1     2 1   
     2     1     9 1   
     3     1    10 1   
     4     1    11 1   
     5     2     3 1   
     6     2     6 1   
     7     3     4 2   
     8     3    12 1   
     9     4     5 1   
    10     5     6 2   
    11     5    13 1   
    12     6     7 1   
    13     7     8 2   
    14     7    14 1   
@<TRIPOS>SUBSTRUCTURE
     1 280         1 TEMP              0 ****  ****    0 ROOT
