@<TRIPOS>MOLECULE
280
   14    14     1     0     0
SMALL
No Charge or Current Charge


@<TRIPOS>ATOM
      1 C1           1.1500     2.0040     0.0030 c3         1 280       0.053900
      2 N2           0.8680     0.5600     0.0070 na         1 280      -0.139500
      3 C3           1.8050    -0.4530     0.0510 cc         1 280       0.416400
      4 N4           1.2140    -1.6410     0.0410 nd         1 280      -0.682000
      5 C5          -0.1440    -1.3880    -0.0110 cd         1 280       0.324900
      6 C6          -0.3770    -0.0390    -0.0330 cc         1 280      -0.342600
      7 C7          -1.7310     0.5380    -0.0890 c          1 280       0.613500
      8 O8          -2.7580    -0.1300    -0.1200 o          1 280      -0.514100
      9 H11          0.7470     2.4550    -0.9120 h1         1 280       0.058033
     10 H12          0.6810     2.4730     0.8770 h1         1 280       0.058033
     11 H13          2.2330     2.1750     0.0410 h1         1 280       0.058033
     12 H3           2.8710    -0.2610     0.0890 h5         1 280       0.056100
     13 H5          -0.8710    -2.1920    -0.0300 h4         1 280       0.053100
     14 H7          -1.7730     1.6490    -0.1020 h4         1 280      -0.015800
@<TRIPOS>BOND
     1     1     2 1   
     2     1     9 1   
     3     1    10 1   
     4     1    11 1   
     5     2     3 1   
     6     2     6 1   
     7     3     4 2   
     8     3    12 1   
     9     4     5 1   
    10     5     6 2   
    11     5    13 1   
    12     6     7 1   
    13     7     8 2   
    14     7    14 1   
@<TRIPOS>SUBSTRUCTURE
     1 280         1 TEMP              0 ****  ****    0 ROOT
