@<TRIPOS>MOLECULE
281
   56    58     1     0     0
SMALL
abcg2


@<TRIPOS>ATOM
      1 C35         36.4430     0.0460    12.5040 ca         1 281      -0.012000
      2 N42         36.6230     0.2340    11.1910 nc         1 281      -0.277500
      3 S41         38.1650    -0.1310    10.8740 ss         1 281       0.567000
      4 N40         38.6790    -0.5400    12.3490 nc         1 281      -0.332500
      5 C36         37.6340    -0.4010    13.1800 ca         1 281      -0.085000
      6 C37         37.6240    -0.6390    14.5760 ca         1 281      -0.054000
      7 C38         36.4600    -0.4230    15.2580 ca         1 281      -0.120000
      8 C39         35.2820     0.0320    14.6030 ca         1 281      -0.003000
      9 C34         35.2580     0.2660    13.2560 ca         1 281      -0.224500
     10 S32         33.7880     0.8630    12.4610 sy         1 281       1.200600
     11 O33         32.8250     1.1120    13.5060 o          1 281      -0.547000
     12 O32         33.4760    -0.0780    11.4110 o          1 281      -0.547000
     13 N31         34.1360     2.2650    11.7460 n7         1 281      -0.860300
     14 C27         34.1410     3.5860    12.3910 c3         1 281      -0.077500
     15 C28         35.5510     4.1800    12.6080 c3         1 281      -0.065700
     16 C30         36.5030     3.9710    11.4280 c3         1 281      -0.084100
     17 C29         36.1930     3.6640    13.8980 c3         1 281      -0.084100
     18 P24         32.8910     4.7120    11.5650 p5         1 281       1.387000
     19 O25         33.0310     6.0640    12.2290 o          1 281      -0.803000
     20 O26         31.5510     4.0200    11.6460 o          1 281      -0.803000
     21 C15         33.4300     4.8430     9.8210 c3         1 281      -0.406400
     22 C1          32.4680     5.6710     8.9560 c3         1 281      -0.124400
     23 C2          31.2230     4.8650     8.4760 c          1 281       0.737000
     24 O14         30.1350     5.4960     8.4440 o          1 281      -0.733000
     25 O13         31.4010     3.6760     8.1160 o          1 281      -0.733000
     26 C3          33.1610     6.2500     7.7400 ca         1 281       0.015700
     27 C8          33.0610     7.6130     7.4540 ca         1 281      -0.114000
     28 C4          33.9080     5.4470     6.8750 ca         1 281      -0.094000
     29 C5          34.5310     5.9980     5.7600 ca         1 281      -0.139000
     30 C6          34.4190     7.3590     5.4910 ca         1 281      -0.138000
     31 C7          33.6800     8.1810     6.3410 ca         1 281      -0.115300
     32 C9          33.5210     9.6510     6.0500 c3         1 281       0.206100
     33 N10         32.4360     9.8750     5.0750 n8         1 281      -1.001200
     34 H37         38.5230    -0.9780    15.0720 ha         1 281       0.120000
     35 H38         36.4200    -0.5930    16.3260 ha         1 281       0.108000
     36 H39         34.3890     0.2070    15.1850 ha         1 281       0.148000
     37 HN31        34.6160     2.1580    10.8630 hn         1 281       0.502000
     38 H27         33.6770     3.4470    13.3690 h1         1 281       0.072700
     39 H28         35.3880     5.2540    12.7260 hc         1 281       0.085700
     40 H301        36.0820     4.3180    10.4850 hc         1 281       0.018700
     41 H302        37.4310     4.5190    11.6020 hc         1 281       0.018700
     42 H303        36.7630     2.9170    11.3140 hc         1 281       0.018700
     43 H291        36.4050     2.5960    13.8370 hc         1 281       0.018700
     44 H292        37.1390     4.1780    14.0860 hc         1 281       0.018700
     45 H293        35.5390     3.8290    14.7580 hc         1 281       0.018700
     46 H151        34.4110     5.3190     9.8250 hc         1 281       0.033700
     47 H152        33.5410     3.8460     9.3930 hc         1 281       0.033700
     48 H1          32.0910     6.5100     9.5400 hc         1 281       0.055700
     49 H8          32.4940     8.2510     8.1240 ha         1 281       0.109000
     50 H4          34.0020     4.3880     7.0750 ha         1 281       0.131000
     51 H5          35.1130     5.3640     5.1010 ha         1 281       0.079000
     52 H6          34.9110     7.7850     4.6250 ha         1 281       0.078000
     53 H91         33.3550    10.1850     6.9940 h1         1 281       0.016700
     54 H92         34.4430    10.0400     5.6120 h1         1 281       0.016700
     55 H101        31.5580     9.5580     5.4760 hn         1 281       0.383000
     56 H102        32.3290    10.8720     4.9150 hn         1 281       0.383000
@<TRIPOS>BOND
     1     1     2 2   
     2     1     5 ar  
     3     1     9 ar  
     4     2     3 1   
     5     3     4 1   
     6     4     5 2   
     7     5     6 ar  
     8     6     7 ar  
     9     6    34 1   
    10     7     8 ar  
    11     7    35 1   
    12     8     9 ar  
    13     8    36 1   
    14     9    10 1   
    15    10    11 2   
    16    10    12 2   
    17    10    13 1   
    18    13    14 1   
    19    13    37 1   
    20    14    15 1   
    21    14    18 1   
    22    14    38 1   
    23    15    16 1   
    24    15    17 1   
    25    15    39 1   
    26    16    40 1   
    27    16    41 1   
    28    16    42 1   
    29    17    43 1   
    30    17    44 1   
    31    17    45 1   
    32    18    19 1   
    33    18    20 1   
    34    18    21 1   
    35    21    22 1   
    36    21    46 1   
    37    21    47 1   
    38    22    23 1   
    39    22    26 1   
    40    22    48 1   
    41    23    24 1   
    42    23    25 1   
    43    26    27 ar  
    44    26    28 ar  
    45    27    31 ar  
    46    27    49 1   
    47    28    29 ar  
    48    28    50 1   
    49    29    30 ar  
    50    29    51 1   
    51    30    31 ar  
    52    30    52 1   
    53    31    32 1   
    54    32    33 1   
    55    32    53 1   
    56    32    54 1   
    57    33    55 1   
    58    33    56 1   
@<TRIPOS>SUBSTRUCTURE
     1 281         1 TEMP              0 ****  ****    0 ROOT
