@<TRIPOS>MOLECULE
281
   56    58     1     0     0
SMALL
No Charge or Current Charge


@<TRIPOS>ATOM
      1 C35         36.5090     0.1040    11.5670 ca         1 281      -0.012000
      2 N42         36.5970     0.7850    10.3700 nc         1 281      -0.277500
      3 S41         38.0020     0.2200     9.6280 ss         1 281       0.567000
      4 N40         38.5030    -0.8770    10.8110 nc         1 281      -0.332500
      5 C36         37.5470    -0.7930    11.8010 ca         1 281      -0.085000
      6 C37         37.5940    -1.5480    12.9830 ca         1 281      -0.054000
      7 C38         36.5800    -1.3910    13.9420 ca         1 281      -0.120000
      8 C39         35.5270    -0.4860    13.7160 ca         1 281      -0.003000
      9 C34         35.4760     0.2710    12.5220 ca         1 281      -0.224500
     10 S32         34.1080     1.4310    12.2730 sy         1 281       1.200600
     11 O33         33.1960     1.3450    13.4170 o          1 281      -0.547000
     12 O32         33.6420     1.3690    10.8840 o          1 281      -0.547000
     13 N31         34.9350     2.8850    12.4270 n7         1 281      -0.860300
     14 C27         34.2340     4.1050    13.0030 c3         1 281      -0.077500
     15 C28         35.3090     5.1640    13.4160 c3         1 281      -0.065700
     16 C30         36.0860     5.7690    12.2210 c3         1 281      -0.084100
     17 C29         36.2830     4.6230    14.4940 c3         1 281      -0.084100
     18 P24         32.7090     4.8650    12.1210 p5         1 281       1.387000
     19 O25         32.5230     6.2940    12.5340 o          1 281      -0.803000
     20 O26         31.4780     4.0500    12.3840 o          1 281      -0.803000
     21 C15         33.1120     4.7910    10.3100 c3         1 281      -0.406400
     22 C1          32.4790     5.9180     9.4210 c3         1 281      -0.124400
     23 C2          30.9220     5.9540     9.4640 c          1 281       0.737000
     24 O14         30.3780     6.9820     9.8440 o          1 281      -0.733000
     25 O13         30.2980     4.9840     9.0550 o          1 281      -0.733000
     26 C3          32.9710     5.8780     7.9690 ca         1 281       0.015700
     27 C8          33.4100     7.0660     7.3460 ca         1 281      -0.114000
     28 C4          32.9890     4.6750     7.2320 ca         1 281      -0.094000
     29 C5          33.4450     4.6610     5.9030 ca         1 281      -0.139000
     30 C6          33.8850     5.8470     5.2960 ca         1 281      -0.138000
     31 C7          33.8680     7.0590     6.0130 ca         1 281      -0.115300
     32 C9          34.3520     8.3470     5.3600 c3         1 281       0.206100
     33 N10         33.2500     9.0660     4.7010 n8         1 281      -1.001200
     34 H37         38.4090    -2.2460    13.1580 ha         1 281       0.120000
     35 H38         36.6100    -1.9690    14.8620 ha         1 281       0.108000
     36 H39         34.7530    -0.3810    14.4750 ha         1 281       0.148000
     37 HN31        35.7170     2.5990    13.0120 hn         1 281       0.502000
     38 H27         33.7430     3.8130    13.9400 h1         1 281       0.072700
     39 H28         34.7740     5.9960    13.8940 hc         1 281       0.085700
     40 H301        35.4120     6.3040    11.5430 hc         1 281       0.018700
     41 H302        36.8330     6.4900    12.5740 hc         1 281       0.018700
     42 H303        36.6090     4.9920    11.6510 hc         1 281       0.018700
     43 H291        36.9440     3.8490    14.0860 hc         1 281       0.018700
     44 H292        36.9140     5.4320    14.8810 hc         1 281       0.018700
     45 H293        35.7300     4.1960    15.3390 hc         1 281       0.018700
     46 H151        34.2010     4.8080    10.2090 hc         1 281       0.033700
     47 H152        32.7740     3.8080     9.9710 hc         1 281       0.033700
     48 H1          32.8170     6.8690     9.8500 hc         1 281       0.055700
     49 H8          33.3980     8.0010     7.9010 ha         1 281       0.109000
     50 H4          32.6440     3.7500     7.6850 ha         1 281       0.131000
     51 H5          33.4560     3.7280     5.3440 ha         1 281       0.079000
     52 H6          34.2370     5.8270     4.2670 ha         1 281       0.078000
     53 H91         34.7940     9.0060     6.1200 h1         1 281       0.016700
     54 H92         35.1240     8.1240     4.6100 h1         1 281       0.016700
     55 H101        32.5560     9.3160     5.4140 hn         1 281       0.383000
     56 H102        33.6000     9.9720     4.3680 hn         1 281       0.383000
@<TRIPOS>BOND
     1     1     2 2   
     2     1     5 ar  
     3     1     9 ar  
     4     2     3 1   
     5     3     4 1   
     6     4     5 2   
     7     5     6 ar  
     8     6     7 ar  
     9     6    34 1   
    10     7     8 ar  
    11     7    35 1   
    12     8     9 ar  
    13     8    36 1   
    14     9    10 1   
    15    10    11 2   
    16    10    12 2   
    17    10    13 1   
    18    13    14 1   
    19    13    37 1   
    20    14    15 1   
    21    14    18 1   
    22    14    38 1   
    23    15    16 1   
    24    15    17 1   
    25    15    39 1   
    26    16    40 1   
    27    16    41 1   
    28    16    42 1   
    29    17    43 1   
    30    17    44 1   
    31    17    45 1   
    32    18    19 1   
    33    18    20 1   
    34    18    21 1   
    35    21    22 1   
    36    21    46 1   
    37    21    47 1   
    38    22    23 1   
    39    22    26 1   
    40    22    48 1   
    41    23    24 1   
    42    23    25 1   
    43    26    27 ar  
    44    26    28 ar  
    45    27    31 ar  
    46    27    49 1   
    47    28    29 ar  
    48    28    50 1   
    49    29    30 ar  
    50    29    51 1   
    51    30    31 ar  
    52    30    52 1   
    53    31    32 1   
    54    32    33 1   
    55    32    53 1   
    56    32    54 1   
    57    33    55 1   
    58    33    56 1   
@<TRIPOS>SUBSTRUCTURE
     1 281         1 TEMP              0 ****  ****    0 ROOT
