@<TRIPOS>MOLECULE
282
   15    15     1     0     0
SMALL
No Charge or Current Charge


@<TRIPOS>ATOM
      1 C1          -2.8200     0.3730    -0.0160 c3         1 282       0.146900
      2 O2          -1.7840    -0.6260    -0.0240 os         1 282      -0.336100
      3 C3          -0.4430    -0.2850    -0.0160 ca         1 282       0.090100
      4 C4           0.5100    -1.3170    -0.0250 ca         1 282      -0.113000
      5 C5           1.8730    -0.9720    -0.0160 ca         1 282      -0.128000
      6 C6           2.2400     0.3860     0.0000 ca         1 282       0.297900
      7 N7           1.3340     1.3930     0.0090 nb         1 282      -0.639000
      8 C8           0.0190     1.0590     0.0010 ca         1 282       0.253900
      9 H11         -2.7470     1.0180    -0.9000 h1         1 282       0.043367
     10 H12         -3.8080    -0.1050    -0.0240 h1         1 282       0.043367
     11 H13         -2.7520     0.9980     0.8840 h1         1 282       0.043367
     12 H4           0.1980    -2.3590    -0.0380 ha         1 282       0.132000
     13 H5           2.6410    -1.7410    -0.0230 ha         1 282       0.124000
     14 H6           3.2900     0.6770     0.0070 h4         1 282       0.021100
     15 H8          -0.6760     1.8980     0.0090 h4         1 282       0.020100
@<TRIPOS>BOND
     1     1     2 1   
     2     1     9 1   
     3     1    10 1   
     4     1    11 1   
     5     2     3 1   
     6     3     4 ar  
     7     3     8 ar  
     8     4     5 ar  
     9     4    12 1   
    10     5     6 ar  
    11     5    13 1   
    12     6     7 ar  
    13     6    14 1   
    14     7     8 ar  
    15     8    15 1   
@<TRIPOS>SUBSTRUCTURE
     1 282         1 TEMP              0 ****  ****    0 ROOT
