@<TRIPOS>MOLECULE
282
   15    15     1     0     0
SMALL
bcc


@<TRIPOS>ATOM
      1 C1          -2.7420     0.3760    -0.0160 c3         1 282       0.123700
      2 O2          -1.7520    -0.6360    -0.0200 os         1 282      -0.312900
      3 C3          -0.4600    -0.2720    -0.0130 ca         1 282       0.024800
      4 C4           0.4900    -1.2930    -0.0230 ca         1 282      -0.131000
      5 C5           1.8290    -0.9570    -0.0170 ca         1 282      -0.211300
      6 C6           2.1850     0.3860    -0.0020 ca         1 282       0.363200
      7 N7           1.2890     1.3600     0.0090 nb         1 282      -0.639000
      8 C8          -0.0030     1.0460     0.0030 ca         1 282       0.319200
      9 H11         -2.6720     1.0180    -0.8980 h1         1 282       0.043367
     10 H12         -3.7010    -0.1340    -0.0300 h1         1 282       0.043367
     11 H13         -2.6880     0.9970     0.8810 h1         1 282       0.043367
     12 H4           0.1730    -2.3290    -0.0360 ha         1 282       0.150000
     13 H5           2.5900    -1.7250    -0.0250 ha         1 282       0.142000
     14 H6           3.2290     0.6790     0.0030 h4         1 282       0.021100
     15 H8          -0.6930     1.8810     0.0120 h4         1 282       0.020100
@<TRIPOS>BOND
     1     1     2 1   
     2     1     9 1   
     3     1    10 1   
     4     1    11 1   
     5     2     3 1   
     6     3     4 ar  
     7     3     8 ar  
     8     4     5 ar  
     9     4    12 1   
    10     5     6 ar  
    11     5    13 1   
    12     6     7 ar  
    13     6    14 1   
    14     7     8 ar  
    15     8    15 1   
@<TRIPOS>SUBSTRUCTURE
     1 282         1 TEMP              0 ****  ****    0 ROOT
