@<TRIPOS>MOLECULE
283
   37    38     1     0     0
SMALL
abcg2


@<TRIPOS>ATOM
      1 C            1.5730     0.0750    -1.3560 ca         1 283      -0.198000
      2 C1           0.3120     0.6310    -1.3780 ca         1 283       0.024000
      3 C2           0.5940     1.3550     0.9050 ca         1 283       0.024000
      4 C3           1.8620     0.7960     0.9310 ca         1 283      -0.198000
      5 C4           2.3600     0.1550    -0.2020 ca         1 283       0.199100
      6 O            3.5770    -0.4010    -0.2820 os         1 283      -0.331100
      7 C5           4.4410    -0.3040     0.8430 c3         1 283       0.259700
      8 C6           8.0820    -1.9460    -0.1210 c3         1 283      -0.014000
      9 C7           6.7880    -1.3750     0.2120 c1         1 283      -0.081100
     10 C8           5.7180    -0.9000     0.4830 c1         1 283      -0.169100
     11 C9          -0.1810     1.2720    -0.2420 ca         1 283      -0.354500
     12 O1          -1.8790     2.9640     0.7840 o          1 283      -0.538000
     13 O2          -2.1480     2.2840    -1.6280 o          1 283      -0.538000
     14 S           -1.8110     1.9480    -0.2540 sy         1 283       1.181600
     15 C10         -2.8300     0.2820     1.5990 c5         1 283       0.215800
     16 N           -2.8300     0.7480     0.1990 n3         1 283      -0.755500
     17 C11         -3.1350    -0.3350    -0.7350 c5         1 283       0.225800
     18 C12         -3.9430    -1.2730     0.1520 c5         1 283       0.078300
     19 S1          -4.0180    -2.9240    -0.5980 sh         1 283      -0.430800
     20 C13         -3.2070    -1.1940     1.4820 c5         1 283      -0.094400
     21 H            1.9660    -0.4160    -2.2360 ha         1 283       0.128500
     22 H1          -0.2730     0.5770    -2.2860 ha         1 283       0.135000
     23 H2           0.2320     1.8650     1.7870 ha         1 283       0.135000
     24 H3           2.4430     0.8790     1.8390 ha         1 283       0.128500
     25 H51          4.5870     0.7430     1.1290 h1         1 283       0.054700
     26 H52          4.0110    -0.8250     1.7050 h1         1 283       0.054700
     27 H61          8.7420    -1.9370     0.7470 hc         1 283       0.057700
     28 H62          7.9820    -2.9790    -0.4540 hc         1 283       0.057700
     29 H63          8.5670    -1.3790    -0.9150 hc         1 283       0.057700
     30 H101        -1.8570     0.3990     2.0800 h1         1 283       0.059700
     31 H102        -3.5600     0.8510     2.1730 h1         1 283       0.059700
     32 H111        -3.7010     0.0260    -1.5900 h1         1 283       0.070200
     33 H112        -2.2310    -0.8410    -1.0990 h1         1 283       0.070200
     34 H12         -4.9600    -0.8880     0.2530 h1         1 283       0.084700
     35 HS1         -4.9300    -3.4380     0.2340 hs         1 283       0.215800
     36 H131        -2.3090    -1.8130     1.4390 hc         1 283       0.063200
     37 H132        -3.8110    -1.5340     2.3220 hc         1 283       0.063200
@<TRIPOS>BOND
     1     1     2 ar  
     2     1     5 ar  
     3     1    21 1   
     4     2    11 ar  
     5     2    22 1   
     6     3     4 ar  
     7     3    11 ar  
     8     3    23 1   
     9     4     5 ar  
    10     4    24 1   
    11     5     6 1   
    12     6     7 1   
    13     7    10 1   
    14     7    25 1   
    15     7    26 1   
    16     8     9 1   
    17     8    27 1   
    18     8    28 1   
    19     8    29 1   
    20     9    10 3   
    21    11    14 1   
    22    12    14 2   
    23    13    14 2   
    24    14    16 1   
    25    15    16 1   
    26    15    20 1   
    27    15    30 1   
    28    15    31 1   
    29    16    17 1   
    30    17    18 1   
    31    17    32 1   
    32    17    33 1   
    33    18    19 1   
    34    18    20 1   
    35    18    34 1   
    36    19    35 1   
    37    20    36 1   
    38    20    37 1   
@<TRIPOS>SUBSTRUCTURE
     1 283         1 TEMP              0 ****  ****    0 ROOT
