@<TRIPOS>MOLECULE
283
   37    38     1     0     0
SMALL
No Charge or Current Charge


@<TRIPOS>ATOM
      1 C            1.6410     0.4440    -1.2990 ca         1 283      -0.198000
      2 C1           0.3540     0.9720    -1.1110 ca         1 283       0.024000
      3 C2           0.7990     1.1780     1.2780 ca         1 283       0.024000
      4 C3           2.0860     0.6480     1.0830 ca         1 283      -0.198000
      5 C4           2.5110     0.2790    -0.2110 ca         1 283       0.199100
      6 O            3.7610    -0.2460    -0.4630 os         1 283      -0.331100
      7 C5           4.7260    -0.4560     0.5800 c3         1 283       0.259700
      8 C6           8.1680    -2.0570    -1.0830 c3         1 283      -0.014000
      9 C7           6.9550    -1.4910    -0.4850 c1         1 283      -0.081100
     10 C8           5.9410    -1.0230    -0.0180 c1         1 283      -0.169100
     11 C9          -0.0680     1.3420     0.1800 ca         1 283      -0.354500
     12 O1          -1.8660     2.5060     1.7870 o          1 283      -0.538000
     13 O2          -2.0590     2.8070    -0.7610 o          1 283      -0.538000
     14 S           -1.7240     2.0000     0.4180 sy         1 283       1.181600
     15 C10         -4.1210     0.6950     0.5770 c5         1 283       0.215800
     16 N           -2.6710     0.6010     0.3050 n3         1 283      -0.755500
     17 C11         -2.2340    -0.6490     0.9530 c5         1 283       0.225800
     18 C12         -3.3100    -1.6150     0.4070 c5         1 283       0.078300
     19 S1          -3.3250    -3.3240     1.1490 sh         1 283      -0.430800
     20 C13         -4.6000    -0.7870     0.6530 c5         1 283      -0.094400
     21 H            1.9670     0.1570    -2.2960 ha         1 283       0.128500
     22 H1          -0.3120     1.0860    -1.9660 ha         1 283       0.135000
     23 H2           0.4820     1.4540     2.2830 ha         1 283       0.135000
     24 H3           2.7330     0.5320     1.9460 ha         1 283       0.128500
     25 H51          4.9800     0.4910     1.0750 h1         1 283       0.054700
     26 H52          4.3410    -1.1550     1.3340 h1         1 283       0.054700
     27 H61          8.9670    -2.1200    -0.3350 hc         1 283       0.057700
     28 H62          7.9690    -3.0640    -1.4680 hc         1 283       0.057700
     29 H63          8.5130    -1.4280    -1.9120 hc         1 283       0.057700
     30 H101        -4.3180     1.2060     1.5310 h1         1 283       0.059700
     31 H102        -4.6430     1.2540    -0.2120 h1         1 283       0.059700
     32 H111        -1.2270    -0.9660     0.6470 h1         1 283       0.070200
     33 H112        -2.2590    -0.5790     2.0500 h1         1 283       0.070200
     34 H12         -3.1520    -1.7650    -0.6700 h1         1 283       0.084700
     35 HS1         -4.3820    -3.7730     0.4270 hs         1 283       0.215800
     36 H131        -5.0270    -0.9970     1.6400 hc         1 283       0.063200
     37 H132        -5.3750    -1.0100    -0.0890 hc         1 283       0.063200
@<TRIPOS>BOND
     1     1     2 ar  
     2     1     5 ar  
     3     1    21 1   
     4     2    11 ar  
     5     2    22 1   
     6     3     4 ar  
     7     3    11 ar  
     8     3    23 1   
     9     4     5 ar  
    10     4    24 1   
    11     5     6 1   
    12     6     7 1   
    13     7    10 1   
    14     7    25 1   
    15     7    26 1   
    16     8     9 1   
    17     8    27 1   
    18     8    28 1   
    19     8    29 1   
    20     9    10 3   
    21    11    14 1   
    22    12    14 2   
    23    13    14 2   
    24    14    16 1   
    25    15    16 1   
    26    15    20 1   
    27    15    30 1   
    28    15    31 1   
    29    16    17 1   
    30    17    18 1   
    31    17    32 1   
    32    17    33 1   
    33    18    19 1   
    34    18    20 1   
    35    18    34 1   
    36    19    35 1   
    37    20    36 1   
    38    20    37 1   
@<TRIPOS>SUBSTRUCTURE
     1 283         1 TEMP              0 ****  ****    0 ROOT
