@<TRIPOS>MOLECULE
284
   20    20     1     0     0
SMALL
No Charge or Current Charge


@<TRIPOS>ATOM
      1 N1           1.2630    -0.9800    -0.0550 nu         1 284      -0.798200
      2 C2           0.0800    -1.8380     0.1540 c6         1 284       0.197800
      3 C3          -1.2000    -1.0750    -0.2840 c6         1 284      -0.084400
      4 C4          -1.2840     0.3250     0.3950 c6         1 284       0.007500
      5 C7          -2.4200     1.1940    -0.2040 c3         1 284      -0.082100
      6 C5           0.0590     1.0430     0.2840 c2         1 284      -0.382200
      7 C6           1.1800     0.3650     0.0690 c2         1 284       0.268000
      8 N7           2.4000     0.9240    -0.0460 nv         1 284      -0.929000
      9 H1           2.1790    -1.3910     0.1160 hn         1 284       0.453000
     10 H21          0.1740    -2.7790    -0.4080 h1         1 284       0.034200
     11 H22         -0.0090    -2.0940     1.2210 h1         1 284       0.034200
     12 H31         -1.1880    -0.9560    -1.3760 hc         1 284       0.047200
     13 H32         -2.0910    -1.6700    -0.0430 hc         1 284       0.047200
     14 H4          -1.5190     0.1920     1.4610 hc         1 284       0.042700
     15 H71         -3.3900     0.6900    -0.1150 hc         1 284       0.031033
     16 H72         -2.4990     2.1560     0.3160 hc         1 284       0.031033
     17 H73         -2.2460     1.4000    -1.2670 hc         1 284       0.031033
     18 H5           0.0620     2.1280     0.3840 ha         1 284       0.177000
     19 H71A         3.0300     0.4640    -0.6940 hn         1 284       0.436000
     20 H72A         2.4170     1.9390    -0.0950 hn         1 284       0.436000
@<TRIPOS>BOND
     1     1     2 1   
     2     1     7 1   
     3     1     9 1   
     4     2     3 1   
     5     2    10 1   
     6     2    11 1   
     7     3     4 1   
     8     3    12 1   
     9     3    13 1   
    10     4     5 1   
    11     4     6 1   
    12     4    14 1   
    13     5    15 1   
    14     5    16 1   
    15     5    17 1   
    16     6     7 2   
    17     6    18 1   
    18     7     8 1   
    19     8    19 1   
    20     8    20 1   
@<TRIPOS>SUBSTRUCTURE
     1 284         1 TEMP              0 ****  ****    0 ROOT
