@<TRIPOS>MOLECULE
285
   21    21     1     0     0
SMALL
No Charge or Current Charge


@<TRIPOS>ATOM
      1 N1           0.4810    -1.1590     0.2520 n7         1 285      -0.886400
      2 C2          -0.9470    -0.7600     0.2670 c5         1 285       0.134500
      3 C2M         -1.8330    -1.8040    -0.4410 c3         1 285      -0.079100
      4 C3          -0.9370     0.6530    -0.4120 c5         1 285       0.169300
      5 C3M         -1.4700     1.7910     0.4880 c3         1 285      -0.100100
      6 O4           0.4620     0.8700    -0.6930 os         1 285      -0.462000
      7 C5           1.1950     0.1180     0.2780 c5         1 285       0.397500
      8 C5M          2.6660    -0.0090    -0.1510 c3         1 285      -0.091100
      9 H1           0.7180    -1.7010     1.0910 hn         1 285       0.425000
     10 H2          -1.2930    -0.6690     1.3070 h1         1 285       0.028700
     11 H2M1        -1.7810    -2.7750     0.0660 hc         1 285       0.041367
     12 H2M2        -2.8820    -1.4860    -0.4450 hc         1 285       0.041367
     13 H2M3        -1.5220    -1.9490    -1.4830 hc         1 285       0.041367
     14 H3          -1.4910     0.6580    -1.3610 h1         1 285       0.059700
     15 H3M1        -0.9230     1.8470     1.4370 hc         1 285       0.042367
     16 H3M2        -1.3790     2.7620    -0.0140 hc         1 285       0.042367
     17 H3M3        -2.5290     1.6350     0.7220 hc         1 285       0.042367
     18 H5           1.1160     0.5970     1.2630 h2         1 285       0.012700
     19 H5M1         2.7530    -0.4560    -1.1470 hc         1 285       0.047033
     20 H5M2         3.1480     0.9750    -0.1760 hc         1 285       0.047033
     21 H5M3         3.2240    -0.6360     0.5530 hc         1 285       0.047033
@<TRIPOS>BOND
     1     1     2 1   
     2     1     7 1   
     3     1     9 1   
     4     2     3 1   
     5     2     4 1   
     6     2    10 1   
     7     3    11 1   
     8     3    12 1   
     9     3    13 1   
    10     4     5 1   
    11     4     6 1   
    12     4    14 1   
    13     5    15 1   
    14     5    16 1   
    15     5    17 1   
    16     6     7 1   
    17     7     8 1   
    18     7    18 1   
    19     8    19 1   
    20     8    20 1   
    21     8    21 1   
@<TRIPOS>SUBSTRUCTURE
     1 285         1 TEMP              0 ****  ****    0 ROOT
