@<TRIPOS>MOLECULE
286
   19    19     1     0     0
SMALL
bcc


@<TRIPOS>ATOM
      1 C1N          0.1600     2.2600     0.0010 c3         1 286      -0.016400
      2 N1          -0.3650     0.8910     0.0560 na         1 286       0.035900
      3 C2           0.4850    -0.1580     0.1560 ca         1 286       0.076900
      4 C3          -0.0450    -1.4400     0.1890 ca         1 286      -0.148000
      5 C21          1.9220     0.0920     0.2450 ce         1 286      -0.211200
      6 C22          2.8280    -0.7450    -0.2550 c2         1 286      -0.076000
      7 C4          -1.4080    -1.6410     0.1040 ca         1 286      -0.003000
      8 C5          -2.2500    -0.5420     0.0070 ca         1 286      -0.139000
      9 C6          -1.6940     0.7120    -0.0130 ca         1 286      -0.026300
     10 H1N1         0.8920     2.3420    -0.7970 h1         1 286       0.094367
     11 H1N2        -0.6590     2.9420    -0.1980 h1         1 286       0.094367
     12 H1N3         0.6160     2.5230     0.9520 h1         1 286       0.094367
     13 H3           0.6270    -2.2780     0.3030 ha         1 286       0.189000
     14 H21          2.2500     0.9970     0.7400 ha         1 286       0.162000
     15 H221         3.8830    -0.5320    -0.1520 ha         1 286       0.146000
     16 H222         2.5610    -1.6460    -0.7900 ha         1 286       0.146000
     17 H4          -1.8120    -2.6430     0.1280 ha         1 286       0.187000
     18 H5          -3.3230    -0.6450    -0.0500 ha         1 286       0.196000
     19 H6          -2.2960     1.6030    -0.0900 h4         1 286       0.200000
@<TRIPOS>BOND
     1     1     2 1   
     2     1    10 1   
     3     1    11 1   
     4     1    12 1   
     5     2     3 1   
     6     2     9 2   
     7     3     4 ar  
     8     3     5 1   
     9     4     7 ar  
    10     4    13 1   
    11     5     6 2   
    12     5    14 1   
    13     6    15 1   
    14     6    16 1   
    15     7     8 ar  
    16     7    17 1   
    17     8     9 ar  
    18     8    18 1   
    19     9    19 1   
@<TRIPOS>SUBSTRUCTURE
     1 286         1 TEMP              0 ****  ****    0 ROOT
