@<TRIPOS>MOLECULE
286
   19    19     1     0     0
SMALL
No Charge or Current Charge


@<TRIPOS>ATOM
      1 C1N          0.1950     2.2910    -0.0710 c3         1 286       0.012900
      2 N1          -0.3630     0.9330     0.0810 na         1 286       0.057300
      3 C2           0.4810    -0.1760     0.2690 ca         1 286       0.026200
      4 C3          -0.0600    -1.4770     0.2850 ca         1 286      -0.130000
      5 C21          1.9540    -0.0010     0.4000 ce         1 286      -0.261200
      6 C22          2.8610    -0.6450    -0.3700 c2         1 286      -0.176000
      7 C4          -1.4450    -1.6760     0.1550 ca         1 286       0.015000
      8 C5          -2.2920    -0.5640     0.0090 ca         1 286      -0.121000
      9 C6          -1.7440     0.7310    -0.0190 ca         1 286      -0.008300
     10 H1N1         1.0100     2.2750    -0.8050 h1         1 286       0.094367
     11 H1N2        -0.5760     2.9880    -0.4180 h1         1 286       0.094367
     12 H1N3         0.5830     2.6380     0.8940 h1         1 286       0.094367
     13 H3           0.5960    -2.3360     0.4110 ha         1 286       0.171000
     14 H21          2.2800     0.7260     1.1490 ha         1 286       0.212000
     15 H221         3.9340    -0.4780    -0.2570 ha         1 286       0.196000
     16 H222         2.5650    -1.3580    -1.1420 ha         1 286       0.196000
     17 H4          -1.8600    -2.6830     0.1750 ha         1 286       0.169000
     18 H5          -3.3670    -0.7050    -0.0820 ha         1 286       0.178000
     19 H6          -2.3820     1.6090    -0.1270 h4         1 286       0.182000
@<TRIPOS>BOND
     1     1     2 1   
     2     1    10 1   
     3     1    11 1   
     4     1    12 1   
     5     2     3 1   
     6     2     9 2   
     7     3     4 ar  
     8     3     5 1   
     9     4     7 ar  
    10     4    13 1   
    11     5     6 2   
    12     5    14 1   
    13     6    15 1   
    14     6    16 1   
    15     7     8 ar  
    16     7    17 1   
    17     8     9 ar  
    18     8    18 1   
    19     9    19 1   
@<TRIPOS>SUBSTRUCTURE
     1 286         1 TEMP              0 ****  ****    0 ROOT
