@<TRIPOS>MOLECULE
287
   60    63     1     0     0
SMALL
bcc


@<TRIPOS>ATOM
      1 C1           8.7160    -2.2470    -0.7740 ca         1 287      -0.122000
      2 C2           8.6610    -1.0060    -1.3920 ca         1 287      -0.128500
      3 C3           7.9090    -2.5010     0.3280 ca         1 287      -0.128500
      4 C4          -6.1790     1.4360    -0.2390 ca         1 287      -0.110000
      5 C5           7.8010    -0.0270    -0.9130 ca         1 287      -0.118000
      6 C6           7.0560    -1.5170     0.8090 ca         1 287      -0.118000
      7 C7          -5.3590     2.5270    -0.4770 ca         1 287      -0.123000
      8 C8          -4.2310     0.0850     0.1540 ca         1 287      -0.062000
      9 C9           2.2180    -0.6280    -0.7040 cc         1 287      -0.095100
     10 C10         -5.6140     0.2070     0.0880 ca         1 287      -0.145600
     11 C11          2.3710     0.6070    -0.0870 cd         1 287      -0.223200
     12 C12          6.9900    -0.2690     0.1910 ca         1 287      -0.099300
     13 C13         -3.9740     2.4270    -0.4120 ca         1 287      -0.081300
     14 C14          1.0920     1.1600     0.1390 cd         1 287      -0.030200
     15 C15         -3.4170     1.1810    -0.0960 ca         1 287       0.139600
     16 C16          0.1880     0.2250    -0.3500 cc         1 287      -0.290600
     17 C17         -0.9240    -1.8960    -1.5100 cc         1 287       0.668900
     18 C18         -1.2300     0.1070    -0.4750 cc         1 287       0.778200
     19 C20          3.6760     1.2410     0.2010 c          1 287       0.709300
     20 C21         -3.1050     3.6190    -0.6780 c3         1 287      -0.055800
     21 C22          0.7620     2.4630     0.7940 c3         1 287      -0.038900
     22 C23          6.2940     1.1470     2.1650 c3         1 287      -0.107100
     23 C24         -9.3860    -2.1910     0.1720 c3         1 287       0.100700
     24 C25          6.0510     0.8010     0.6980 c3         1 287       0.161000
     25 N26          0.3680    -1.9270    -1.4520 nd         1 287      -0.562800
     26 N27         -1.7620    -0.9430    -1.0580 nd         1 287      -0.812000
     27 N28          0.9070    -0.8430    -0.8610 na         1 287       0.241200
     28 N29         -2.0170     1.0940    -0.0040 nu         1 287      -0.739300
     29 N30          4.6780     0.3800     0.4610 ns         1 287      -0.570900
     30 N31         -7.6830    -0.7760     0.7800 ns         1 287      -0.448400
     31 O32         -5.9840    -2.1410     0.1800 o          1 287      -0.556100
     32 O33          3.8310     2.4560     0.1700 o          1 287      -0.611100
     33 O34         -8.4470    -1.8290     1.1780 os         1 287      -0.205900
     34 H1           9.3840    -3.0130    -1.1470 ha         1 287       0.132000
     35 H2           9.2860    -0.8000    -2.2520 ha         1 287       0.132000
     36 H3           7.9440    -3.4660     0.8170 ha         1 287       0.132000
     37 H4          -7.2500     1.5560    -0.3350 ha         1 287       0.136000
     38 H5           7.7620     0.9390    -1.4040 ha         1 287       0.131500
     39 H6           6.4420    -1.7310     1.6760 ha         1 287       0.131500
     40 H7          -5.8050     3.4770    -0.7420 ha         1 287       0.137000
     41 H8          -3.7910    -0.8660     0.4140 ha         1 287       0.177000
     42 H9           2.9420    -1.3380    -1.0690 h4         1 287       0.190000
     43 H17         -1.3840    -2.7530    -1.9850 h5         1 287       0.062100
     44 H211        -2.5830     3.9480     0.2240 hc         1 287       0.048700
     45 H212        -2.3470     3.4070    -1.4340 hc         1 287       0.048700
     46 H213        -3.6980     4.4610    -1.0280 hc         1 287       0.048700
     47 H221         0.3660     3.1850     0.0760 hc         1 287       0.051033
     48 H222         0.0270     2.3410     1.5920 hc         1 287       0.051033
     49 H223         1.6410     2.9160     1.2390 hc         1 287       0.051033
     50 H231         6.1080     0.2920     2.8160 hc         1 287       0.043700
     51 H232         7.3260     1.4650     2.3130 hc         1 287       0.043700
     52 H233         5.6400     1.9590     2.4790 hc         1 287       0.043700
     53 H241        -9.9470    -3.0300     0.5770 h1         1 287       0.043367
     54 H242       -10.0750    -1.3730    -0.0480 h1         1 287       0.043367
     55 H243        -8.8890    -2.5040    -0.7480 h1         1 287       0.043367
     56 H25          6.2140     1.7020     0.1050 h1         1 287       0.079700
     57 H29         -1.5530     1.9000     0.3820 hn         1 287       0.457800
     58 H30          4.4520    -0.5860     0.6350 hn         1 287       0.314500
     59 H31         -7.9500     0.1050     1.1970 hn         1 287       0.331500
     60 C19         -6.4230    -1.0190     0.3540 c          1 287       0.678700
@<TRIPOS>BOND
     1     1     2 ar  
     2     1     3 ar  
     3     1    34 1   
     4     2     5 ar  
     5     2    35 1   
     6     3     6 ar  
     7     3    36 1   
     8     4     7 ar  
     9     4    10 ar  
    10     4    37 1   
    11     5    12 ar  
    12     5    38 1   
    13     6    12 ar  
    14     6    39 1   
    15     7    13 ar  
    16     7    40 1   
    17     8    10 ar  
    18     8    15 ar  
    19     8    41 1   
    20     9    11 2   
    21     9    27 1   
    22     9    42 1   
    23    10    60 1   
    24    11    14 1   
    25    11    19 1   
    26    12    24 1   
    27    13    15 ar  
    28    13    20 1   
    29    14    16 2   
    30    14    21 1   
    31    15    28 1   
    32    16    18 1   
    33    16    27 1   
    34    17    25 2   
    35    17    26 1   
    36    17    43 1   
    37    18    26 2   
    38    18    28 1   
    39    19    29 1   
    40    19    32 2   
    41    20    44 1   
    42    20    45 1   
    43    20    46 1   
    44    21    47 1   
    45    21    48 1   
    46    21    49 1   
    47    22    24 1   
    48    22    50 1   
    49    22    51 1   
    50    22    52 1   
    51    23    33 1   
    52    23    53 1   
    53    23    54 1   
    54    23    55 1   
    55    24    29 1   
    56    24    56 1   
    57    25    27 1   
    58    28    57 1   
    59    29    58 1   
    60    30    33 1   
    61    30    59 1   
    62    30    60 1   
    63    31    60 2   
@<TRIPOS>SUBSTRUCTURE
     1 287         1 TEMP              0 ****  ****    0 ROOT
