@<TRIPOS>MOLECULE
287
   60    63     1     0     0
SMALL
No Charge or Current Charge


@<TRIPOS>ATOM
      1 C1           8.8420    -1.7910    -1.4330 ca         1 287      -0.104000
      2 C2           8.7020    -0.4380    -1.7830 ca         1 287      -0.110500
      3 C3           8.0940    -2.3180    -0.3670 ca         1 287      -0.110500
      4 C4          -6.1680     1.6630    -0.3340 ca         1 287      -0.092000
      5 C5           7.8170     0.3880    -1.0690 ca         1 287      -0.100000
      6 C6           7.2090    -1.4930     0.3490 ca         1 287      -0.100000
      7 C7          -5.2320     2.6380    -0.7110 ca         1 287      -0.105000
      8 C8          -4.3500     0.1930     0.3220 ca         1 287      -0.044000
      9 C9           2.2540    -0.8750    -0.0470 cc         1 287      -0.145100
     10 C10         -5.7390     0.4220     0.1940 ca         1 287      -0.145600
     11 C11          2.3210     0.4440     0.3820 cd         1 287      -0.223200
     12 C12          7.0650    -0.1320     0.0060 ca         1 287      -0.099300
     13 C13         -3.8500     2.4030    -0.5810 ca         1 287      -0.081300
     14 C14          0.9890     0.9660     0.4610 cd         1 287      -0.030200
     15 C15         -3.4040     1.1620    -0.0690 ca         1 287       0.278000
     16 C16          0.1630    -0.0540     0.0420 cc         1 287      -0.276000
     17 C17         -0.9260    -2.3260    -0.7960 cc         1 287       0.142900
     18 C18         -1.2390    -0.1720    -0.1380 cc         1 287       0.449900
     19 C20          3.6130     1.1440     0.6840 c          1 287       0.642300
     20 C21         -2.8650     3.4920    -1.0030 c3         1 287      -0.055800
     21 C22          0.5860     2.3550     0.9150 c3         1 287      -0.038900
     22 C23          6.4180     0.8260     2.2800 c3         1 287      -0.107100
     23 C24         -9.4840    -2.1790    -0.0980 c3         1 287       0.123900
     24 C25          6.1010     0.7730     0.7700 c3         1 287       0.161000
     25 N26          0.4120    -2.3740    -0.6820 nd         1 287      -0.299800
     26 N27         -1.7550    -1.3060    -0.5580 nd         1 287      -0.286000
     27 N28          0.9140    -1.1670    -0.2480 na         1 287       0.291900
     28 N29         -2.0300     0.9230     0.0780 nu         1 287      -0.932900
     29 N30          4.7250     0.3470     0.5320 ns         1 287      -0.503900
     30 N31         -8.0620    -0.3670     0.4930 ns         1 287      -0.381400
     31 O32         -6.3270    -1.7350     1.0660 o          1 287      -0.556100
     32 O33          3.7060     2.3130     1.0250 o          1 287      -0.611100
     33 O34         -9.0260    -1.3260     0.9650 os         1 287      -0.229100
     34 H1           9.5270    -2.4300    -1.9860 ha         1 287       0.114000
     35 H2           9.2790    -0.0290    -2.6100 ha         1 287       0.114000
     36 H3           8.1990    -3.3660    -0.0960 ha         1 287       0.114000
     37 H4          -7.2240     1.8910    -0.4560 ha         1 287       0.118000
     38 H5           7.7160     1.4330    -1.3520 ha         1 287       0.113500
     39 H6           6.6330    -1.9170     1.1690 ha         1 287       0.113500
     40 H7          -5.5870     3.5870    -1.1090 ha         1 287       0.119000
     41 H8          -3.9970    -0.7430     0.7420 ha         1 287       0.159000
     42 H9           3.0120    -1.6240    -0.2360 h4         1 287       0.240000
     43 H17         -1.3980    -3.2410    -1.1330 h5         1 287       0.062100
     44 H211        -2.3060     3.8750    -0.1400 hc         1 287       0.048700
     45 H212        -2.1420     3.1130    -1.7360 hc         1 287       0.048700
     46 H213        -3.3750     4.3460    -1.4650 hc         1 287       0.048700
     47 H221         0.3870     3.0080     0.0570 hc         1 287       0.051033
     48 H222        -0.3090     2.3260     1.5450 hc         1 287       0.051033
     49 H223         1.3550     2.8350     1.5270 hc         1 287       0.051033
     50 H231         6.2640    -0.1510     2.7530 hc         1 287       0.043700
     51 H232         7.4600     1.1260     2.4390 hc         1 287       0.043700
     52 H233         5.7750     1.5550     2.7860 hc         1 287       0.043700
     53 H241       -10.2190    -2.8990     0.2820 h1         1 287       0.043367
     54 H242        -9.9600    -1.5900    -0.8920 h1         1 287       0.043367
     55 H243        -8.6480    -2.7410    -0.5340 h1         1 287       0.043367
     56 H25          6.2080     1.7940     0.3770 h1         1 287       0.079700
     57 H29         -1.4680     1.7670     0.1130 hn         1 287       0.513000
     58 H30          4.5700    -0.6030     0.2310 hn         1 287       0.314500
     59 H31         -8.4150     0.5320     0.1830 hn         1 287       0.331500
     60 C19         -6.7120    -0.6580     0.6260 c          1 287       0.611700
@<TRIPOS>BOND
     1     1     2 ar  
     2     1     3 ar  
     3     1    34 1   
     4     2     5 ar  
     5     2    35 1   
     6     3     6 ar  
     7     3    36 1   
     8     4     7 ar  
     9     4    10 ar  
    10     4    37 1   
    11     5    12 ar  
    12     5    38 1   
    13     6    12 ar  
    14     6    39 1   
    15     7    13 ar  
    16     7    40 1   
    17     8    10 ar  
    18     8    15 ar  
    19     8    41 1   
    20     9    11 2   
    21     9    27 1   
    22     9    42 1   
    23    10    60 1   
    24    11    14 1   
    25    11    19 1   
    26    12    24 1   
    27    13    15 ar  
    28    13    20 1   
    29    14    16 2   
    30    14    21 1   
    31    15    28 1   
    32    16    18 1   
    33    16    27 1   
    34    17    25 2   
    35    17    26 1   
    36    17    43 1   
    37    18    26 2   
    38    18    28 1   
    39    19    29 1   
    40    19    32 2   
    41    20    44 1   
    42    20    45 1   
    43    20    46 1   
    44    21    47 1   
    45    21    48 1   
    46    21    49 1   
    47    22    24 1   
    48    22    50 1   
    49    22    51 1   
    50    22    52 1   
    51    23    33 1   
    52    23    53 1   
    53    23    54 1   
    54    23    55 1   
    55    24    29 1   
    56    24    56 1   
    57    25    27 1   
    58    28    57 1   
    59    29    58 1   
    60    30    33 1   
    61    30    59 1   
    62    30    60 1   
    63    31    60 2   
@<TRIPOS>SUBSTRUCTURE
     1 287         1 TEMP              0 ****  ****    0 ROOT
