@<TRIPOS>MOLECULE
288
   49    51     1     0     0
SMALL
abcg2


@<TRIPOS>ATOM
      1 C1           3.4510    -0.2770    -0.3160 ca         1 288      -0.112800
      2 C2           2.6350    -0.4490     0.8230 ca         1 288      -0.038200
      3 C3           2.6410    -0.5590    -1.4520 cc         1 288      -0.157200
      4 C4           4.7900     0.1030    -0.1560 ca         1 288      -0.040000
      5 N5           1.3900    -0.7910     0.3900 na         1 288      -0.212700
      6 C6           3.1230    -0.2740     2.1160 ca         1 288      -0.124000
      7 C7           1.3950    -0.8700    -0.9800 cd         1 288      -0.144300
      8 C8           5.2550     0.2810     1.1260 ca         1 288       0.087000
      9 C9           4.4430     0.0960     2.2580 ca         1 288      -0.076000
     10 C10          0.1980    -1.1850    -1.7880 c          1 288       0.626300
     11 CL11         6.9120     0.7490     1.3730 cl         1 288      -0.211000
     12 N12         -0.9800    -0.9790    -1.1740 ns         1 288      -0.509900
     13 O13          0.3070    -1.5980    -2.9330 o          1 288      -0.582100
     14 C14         -2.2570    -1.1280    -1.8330 c3         1 288       0.051000
     15 C15         -3.3470    -1.2120    -0.7500 c3         1 288       0.416500
     16 N16         -3.1420    -0.1560     0.2580 n3         1 288      -0.796600
     17 O17         -3.3200    -2.4920    -0.1930 oh         1 288      -0.638000
     18 C18         -3.7620     1.1230    -0.0840 c5         1 288       0.184500
     19 C19         -3.4000    -0.5360     1.6440 c3         1 288       0.188800
     20 C20         -3.3480     2.2510     0.8750 c5         1 288      -0.083400
     21 C21         -3.4090     1.7230    -1.4470 c5         1 288      -0.083400
     22 C22         -4.8480    -0.5350     2.1130 c3         1 288       0.131600
     23 C23         -3.6090     3.5660     0.1170 c5         1 288      -0.079400
     24 C24         -3.9280     3.1520    -1.3300 c5         1 288      -0.079400
     25 O25         -5.6310    -1.4080     1.3310 oh         1 288      -0.645000
     26 H3           2.9300    -0.5070    -2.4890 ha         1 288       0.223000
     27 H4           5.4360     0.2460    -1.0120 ha         1 288       0.134000
     28 HN5          0.6480    -1.1100     0.9920 hn         1 288       0.352000
     29 H6           2.4940    -0.4160     2.9850 ha         1 288       0.119000
     30 H9           4.8560     0.2470     3.2450 ha         1 288       0.128000
     31 H12         -1.0330    -0.3840    -0.3540 hn         1 288       0.332500
     32 H141        -2.2760    -2.0480    -2.4170 h1         1 288       0.063700
     33 H142        -2.4330    -0.3100    -2.5310 h1         1 288       0.063700
     34 H15         -4.3290    -1.1070    -1.2280 h2         1 288       0.075700
     35 H17         -2.4020    -2.7470    -0.0430 ho         1 288       0.448000
     36 H18         -4.8610     1.0290    -0.0630 h1         1 288       0.032700
     37 H191        -2.8610     0.1590     2.2910 h1         1 288       0.053700
     38 H192        -2.9570    -1.5100     1.8400 h1         1 288       0.053700
     39 H201        -3.8820     2.2140     1.8260 hc         1 288       0.047700
     40 H202        -2.2840     2.1390     1.0980 hc         1 288       0.047700
     41 H211        -2.3220     1.7250    -1.5820 hc         1 288       0.047700
     42 H212        -3.8560     1.1960    -2.2900 hc         1 288       0.047700
     43 H221        -5.2460     0.4870     2.0820 h1         1 288       0.018700
     44 H222        -4.8430    -0.8290     3.1720 h1         1 288       0.018700
     45 H231        -4.4290     4.1320     0.5590 hc         1 288       0.045200
     46 H232        -2.7300     4.2100     0.1560 hc         1 288       0.045200
     47 H241        -5.0070     3.1650    -1.5000 hc         1 288       0.045200
     48 H242        -3.4830     3.8180    -2.0700 hc         1 288       0.045200
     49 H25         -6.5530    -1.2600     1.5600 ho         1 288       0.439000
@<TRIPOS>BOND
     1     1     2 ar  
     2     1     3 1   
     3     1     4 ar  
     4     2     5 1   
     5     2     6 ar  
     6     3     7 2   
     7     3    26 1   
     8     4     8 ar  
     9     4    27 1   
    10     5     7 1   
    11     5    28 1   
    12     6     9 ar  
    13     6    29 1   
    14     7    10 1   
    15     8     9 ar  
    16     8    11 1   
    17     9    30 1   
    18    10    12 1   
    19    10    13 2   
    20    12    14 1   
    21    12    31 1   
    22    14    15 1   
    23    14    32 1   
    24    14    33 1   
    25    15    16 1   
    26    15    17 1   
    27    15    34 1   
    28    16    18 1   
    29    16    19 1   
    30    17    35 1   
    31    18    20 1   
    32    18    21 1   
    33    18    36 1   
    34    19    22 1   
    35    19    37 1   
    36    19    38 1   
    37    20    23 1   
    38    20    39 1   
    39    20    40 1   
    40    21    24 1   
    41    21    41 1   
    42    21    42 1   
    43    22    25 1   
    44    22    43 1   
    45    22    44 1   
    46    23    24 1   
    47    23    45 1   
    48    23    46 1   
    49    24    47 1   
    50    24    48 1   
    51    25    49 1   
@<TRIPOS>SUBSTRUCTURE
     1 288         1 TEMP              0 ****  ****    0 ROOT
