@<TRIPOS>MOLECULE
288
   49    51     1     0     0
SMALL
No Charge or Current Charge


@<TRIPOS>ATOM
      1 C1           3.6020     0.0610    -0.9720 ca         1 288      -0.112800
      2 C2           3.1710    -0.2670     0.2820 ca         1 288      -0.038200
      3 C3           2.4920    -0.1010    -1.8580 cc         1 288      -0.157200
      4 C4           4.9190     0.4700    -1.2260 ca         1 288      -0.040000
      5 N5           1.8350    -0.6360     0.2660 na         1 288      -0.212700
      6 C6           4.0320    -0.2100     1.3870 ca         1 288      -0.124000
      7 C7           1.4100    -0.5290    -1.0920 cd         1 288      -0.144300
      8 C8           5.8070     0.5360    -0.1330 ca         1 288       0.087000
      9 C9           5.3670     0.1980     1.1690 ca         1 288      -0.076000
     10 C10          0.0630    -0.8010    -1.6780 c          1 288       0.626300
     11 Cl11         7.4720     1.0420    -0.3880 cl         1 288      -0.211000
     12 N12         -0.8740    -1.2130    -0.7600 ns         1 288      -0.509900
     13 O13         -0.2010    -0.6730    -2.8660 o          1 288      -0.582100
     14 C14         -2.2900    -1.4950    -1.0700 c3         1 288       0.051000
     15 C15         -3.2500    -1.5140     0.1630 c3         1 288       0.416500
     16 N16         -3.6130    -0.2620     0.8860 n3         1 288      -0.796600
     17 O17         -2.6060    -2.1950     1.2040 oh         1 288      -0.638000
     18 C18         -3.7500     1.0060     0.0590 c5         1 288       0.184500
     19 C19         -4.7780    -0.5160     1.8270 c3         1 288       0.188800
     20 C20         -4.2400     2.1830     0.9590 c5         1 288      -0.083400
     21 C21         -2.3270     1.5440    -0.3350 c5         1 288      -0.083400
     22 C22         -6.2020    -0.6480     1.1890 c3         1 288       0.131600
     23 C23         -3.9120     3.3810     0.0450 c5         1 288      -0.079400
     24 C24         -2.4240     3.1040    -0.2700 c5         1 288      -0.079400
     25 O25         -6.4220    -1.9380     0.5910 oh         1 288      -0.645000
     26 H3           2.4770     0.0750    -2.9330 ha         1 288       0.223000
     27 H4           5.2450     0.7270    -2.2300 ha         1 288       0.134000
     28 HN5          1.2840    -0.9220     1.0680 hn         1 288       0.352000
     29 H6           3.6850    -0.4720     2.3840 ha         1 288       0.119000
     30 H9           6.0600     0.2520     2.0050 ha         1 288       0.128000
     31 H12         -0.5770    -1.3040     0.2010 hn         1 288       0.332500
     32 H141        -2.3290    -2.4900    -1.5320 h1         1 288       0.063700
     33 H142        -2.6660    -0.7910    -1.8210 h1         1 288       0.063700
     34 H15         -4.1530    -2.0570    -0.1380 h2         1 288       0.075700
     35 H17         -2.6140    -1.4830     1.8750 ho         1 288       0.448000
     36 H18         -4.4010     0.8730    -0.8170 h1         1 288       0.032700
     37 H191        -4.8340     0.2910     2.5680 h1         1 288       0.053700
     38 H192        -4.6100    -1.4180     2.4300 h1         1 288       0.053700
     39 H201        -5.3120     2.1400     1.1820 hc         1 288       0.047700
     40 H202        -3.6990     2.2420     1.9110 hc         1 288       0.047700
     41 H211        -1.5500     1.1920     0.3530 hc         1 288       0.047700
     42 H212        -2.0380     1.2370    -1.3440 hc         1 288       0.047700
     43 H221        -6.3550     0.1460     0.4480 h1         1 288       0.018700
     44 H222        -6.9410    -0.4920     1.9850 h1         1 288       0.018700
     45 H231        -4.5280     3.3810    -0.8630 hc         1 288       0.045200
     46 H232        -4.0610     4.3460     0.5440 hc         1 288       0.045200
     47 H241        -2.1090     3.5790    -1.2060 hc         1 288       0.045200
     48 H242        -1.7750     3.4980     0.5210 hc         1 288       0.045200
     49 H25         -7.3420    -1.9410     0.2450 ho         1 288       0.439000
@<TRIPOS>BOND
     1     1     2 ar  
     2     1     3 1   
     3     1     4 ar  
     4     2     5 1   
     5     2     6 ar  
     6     3     7 2   
     7     3    26 1   
     8     4     8 ar  
     9     4    27 1   
    10     5     7 1   
    11     5    28 1   
    12     6     9 ar  
    13     6    29 1   
    14     7    10 1   
    15     8     9 ar  
    16     8    11 1   
    17     9    30 1   
    18    10    12 1   
    19    10    13 2   
    20    12    14 1   
    21    12    31 1   
    22    14    15 1   
    23    14    32 1   
    24    14    33 1   
    25    15    16 1   
    26    15    17 1   
    27    15    34 1   
    28    16    18 1   
    29    16    19 1   
    30    17    35 1   
    31    18    20 1   
    32    18    21 1   
    33    18    36 1   
    34    19    22 1   
    35    19    37 1   
    36    19    38 1   
    37    20    23 1   
    38    20    39 1   
    39    20    40 1   
    40    21    24 1   
    41    21    41 1   
    42    21    42 1   
    43    22    25 1   
    44    22    43 1   
    45    22    44 1   
    46    23    24 1   
    47    23    45 1   
    48    23    46 1   
    49    24    47 1   
    50    24    48 1   
    51    25    49 1   
@<TRIPOS>SUBSTRUCTURE
     1 288         1 TEMP              0 ****  ****    0 ROOT
