@<TRIPOS>MOLECULE
289
   28    28     1     0     0
SMALL
abcg2


@<TRIPOS>ATOM
      1 O7          33.1110   -12.7040    10.8160 oh         1 289      -0.653000
      2 C7          31.7790   -13.0890    10.5750 c3         1 289       0.131600
      3 C6          30.8590   -11.8760    10.4470 c3         1 289       0.142300
      4 O6          31.3350   -11.0000     9.4440 oh         1 289      -0.720000
      5 C5          29.3950   -12.2340    10.1950 c6         1 289       0.137300
      6 O5          29.3430   -12.9260     8.9610 os         1 289      -0.472000
      7 C1          28.0590   -13.2220     8.4740 c6         1 289       0.365300
      8 O1          27.3810   -12.0960     8.0180 oh         1 289      -0.719000
      9 C2          27.2630   -14.0370     9.5050 c6         1 289       0.074300
     10 O2          27.8270   -15.3180     9.6630 oh         1 289      -0.715000
     11 C3          27.3000   -13.3740    10.8820 c6         1 289       0.132300
     12 O3          26.6330   -14.1440    11.8510 oh         1 289      -0.711000
     13 C4          28.7420   -13.0730    11.2920 c6         1 289       0.116300
     14 O4          28.7970   -12.3360    12.4880 oh         1 289      -0.712000
     15 HO7         33.3670   -12.0970    10.1130 ho         1 289       0.450000
     16 H71         31.6980   -13.7170     9.6770 h1         1 289       0.049700
     17 H72         31.4700   -13.7010    11.4240 h1         1 289       0.049700
     18 H6          30.9060   -11.3080    11.3800 h1         1 289       0.102700
     19 HO6         31.1880   -11.4160     8.5860 ho         1 289       0.513000
     20 H5          28.8460   -11.2810    10.1270 h1         1 289       0.057700
     21 H1          28.2330   -13.8410     7.5900 h2         1 289       0.105700
     22 HO1         26.9260   -11.6360     8.7320 ho         1 289       0.511000
     23 H2          26.2210   -14.1040     9.1650 h1         1 289       0.060700
     24 HO2         27.5600   -15.8730     8.9230 ho         1 289       0.517000
     25 H3          26.7570   -12.4220    10.8390 h1         1 289       0.079700
     26 HO3         26.9590   -15.0490    11.7830 ho         1 289       0.521000
     27 H4          29.2820   -14.0260    11.3920 h1         1 289       0.061700
     28 HO4         28.3110   -12.8250    13.1610 ho         1 289       0.522000
@<TRIPOS>BOND
     1     1     2 1   
     2     1    15 1   
     3     2     3 1   
     4     2    16 1   
     5     2    17 1   
     6     3     4 1   
     7     3     5 1   
     8     3    18 1   
     9     4    19 1   
    10     5     6 1   
    11     5    13 1   
    12     5    20 1   
    13     6     7 1   
    14     7     8 1   
    15     7     9 1   
    16     7    21 1   
    17     8    22 1   
    18     9    10 1   
    19     9    11 1   
    20     9    23 1   
    21    10    24 1   
    22    11    12 1   
    23    11    13 1   
    24    11    25 1   
    25    12    26 1   
    26    13    14 1   
    27    13    27 1   
    28    14    28 1   
@<TRIPOS>SUBSTRUCTURE
     1 289         1 TEMP              0 ****  ****    0 ROOT
