@<TRIPOS>MOLECULE
289
   28    28     1     0     0
SMALL
No Charge or Current Charge


@<TRIPOS>ATOM
      1 O7          33.1620   -12.6450    10.8370 oh         1 289      -0.653000
      2 C7          31.7940   -13.0750    10.7780 c3         1 289       0.131600
      3 C6          30.8860   -11.8460    10.4910 c3         1 289       0.142300
      4 O6          31.4230   -11.1540     9.3410 oh         1 289      -0.720000
      5 C5          29.3790   -12.1890    10.2450 c6         1 289       0.137300
      6 O5          29.2850   -12.8130     8.9300 os         1 289      -0.472000
      7 C1          27.9470   -13.1300     8.4930 c6         1 289       0.365300
      8 O1          27.2490   -11.8950     8.3490 oh         1 289      -0.719000
      9 C2          27.2290   -14.0880     9.5180 c6         1 289       0.074300
     10 O2          27.8320   -15.4100     9.5850 oh         1 289      -0.715000
     11 C3          27.2770   -13.4560    10.9400 c6         1 289       0.132300
     12 O3          26.7270   -14.3940    11.8790 oh         1 289      -0.711000
     13 C4          28.7450   -13.1080    11.3350 c6         1 289       0.116300
     14 O4          28.7690   -12.4950    12.6380 oh         1 289      -0.712000
     15 HO7         33.2050   -11.8970    10.1960 ho         1 289       0.450000
     16 H71         31.6590   -13.8210     9.9830 h1         1 289       0.049700
     17 H72         31.5010   -13.5400    11.7290 h1         1 289       0.049700
     18 H6          30.9260   -11.1960    11.3780 h1         1 289       0.102700
     19 HO6         30.9340   -11.5360     8.5710 ho         1 289       0.513000
     20 H5          28.8290   -11.2370    10.2270 h1         1 289       0.057700
     21 H1          27.9990   -13.6380     7.5150 h2         1 289       0.105700
     22 HO1         27.7980   -11.3620     7.7320 ho         1 289       0.511000
     23 H2          26.1750   -14.1750     9.2140 h1         1 289       0.060700
     24 HO2         27.7950   -15.8060     8.6810 ho         1 289       0.517000
     25 H3          26.6850   -12.5270    10.9320 h1         1 289       0.079700
     26 HO3         26.9460   -15.2680    11.4680 ho         1 289       0.521000
     27 H4          29.3130   -14.0490    11.3610 h1         1 289       0.061700
     28 HO4         28.0790   -12.9760    13.1570 ho         1 289       0.522000
@<TRIPOS>BOND
     1     1     2 1   
     2     1    15 1   
     3     2     3 1   
     4     2    16 1   
     5     2    17 1   
     6     3     4 1   
     7     3     5 1   
     8     3    18 1   
     9     4    19 1   
    10     5     6 1   
    11     5    13 1   
    12     5    20 1   
    13     6     7 1   
    14     7     8 1   
    15     7     9 1   
    16     7    21 1   
    17     8    22 1   
    18     9    10 1   
    19     9    11 1   
    20     9    23 1   
    21    10    24 1   
    22    11    12 1   
    23    11    13 1   
    24    11    25 1   
    25    12    26 1   
    26    13    14 1   
    27    13    27 1   
    28    14    28 1   
@<TRIPOS>SUBSTRUCTURE
     1 289         1 TEMP              0 ****  ****    0 ROOT
