@<TRIPOS>MOLECULE
28B
   24    25     1     0     0
SMALL
No Charge or Current Charge


@<TRIPOS>ATOM
      1 O01          4.5720     1.0360    -0.1210 o          1 28B      -0.574000
      2 C02          3.4030     0.6720    -0.1210 c          1 28B       0.509200
      3 C03          2.9510    -0.7040     0.2200 cc         1 28B       0.011900
      4 O04          3.9450    -1.5660     0.5550 oh         1 28B      -0.520100
      5 C05          1.6210    -1.0770     0.2060 cd         1 28B      -0.164000
      6 C06          0.5910    -0.1150    -0.1640 cd         1 28B      -0.088200
      7 C07         -0.8590    -0.4660    -0.1640 ca         1 28B      -0.029800
      8 C08         -1.2850    -1.8160    -0.1240 ca         1 28B      -0.080000
      9 C09         -2.6510    -2.1470    -0.1260 ca         1 28B      -0.110000
     10 C10         -3.6230    -1.1390    -0.1670 ca         1 28B      -0.070000
     11 C11         -3.2280     0.2080    -0.2080 ca         1 28B      -0.014000
     12 C12         -4.2210     1.2470    -0.2450 cg         1 28B       0.321000
     13 N13         -5.0200     2.0980    -0.2760 n1         1 28B      -0.448000
     14 C14         -1.8580     0.5390    -0.2080 ca         1 28B      -0.073000
     15 C15          1.0290     1.1750    -0.4570 cc         1 28B      -0.065400
     16 N16          2.3760     1.5170    -0.4360 ns         1 28B      -0.343100
     17 H1           4.7880    -1.0580     0.4890 ho         1 28B       0.492000
     18 H2           1.3770    -2.0930     0.4910 ha         1 28B       0.206000
     19 H3          -0.5720    -2.6330    -0.1170 ha         1 28B       0.123000
     20 H4          -2.9550    -3.1920    -0.1010 ha         1 28B       0.123000
     21 H5          -4.6790    -1.4050    -0.1670 ha         1 28B       0.129000
     22 H6          -1.5890     1.5900    -0.2200 ha         1 28B       0.123000
     23 H7           0.4070     2.0140    -0.7490 h4         1 28B       0.209000
     24 H8           2.6580     2.4640    -0.6680 hn         1 28B       0.334500
@<TRIPOS>BOND
     1     1     2 2   
     2     2     3 1   
     3     2    16 1   
     4     3     4 1   
     5     3     5 2   
     6     4    17 1   
     7     5     6 1   
     8     5    18 1   
     9     6     7 1   
    10     6    15 2   
    11     7     8 ar  
    12     7    14 ar  
    13     8     9 ar  
    14     8    19 1   
    15     9    10 ar  
    16     9    20 1   
    17    10    11 ar  
    18    10    21 1   
    19    11    12 1   
    20    11    14 ar  
    21    12    13 3   
    22    14    22 1   
    23    15    16 1   
    24    15    23 1   
    25    16    24 1   
@<TRIPOS>SUBSTRUCTURE
     1 28B         1 TEMP              0 ****  ****    0 ROOT
