@<TRIPOS>MOLECULE
28B
   24    25     1     0     0
SMALL
bcc


@<TRIPOS>ATOM
      1 O01          4.5280     0.9410    -0.1790 o          1 28B      -0.649500
      2 C02          3.3410     0.6180    -0.1740 c          1 28B       0.651700
      3 C03          2.8740    -0.6250     0.4110 cc         1 28B       0.011900
      4 O04          3.8060    -1.4150     0.9610 oh         1 28B      -0.481100
      5 C05          1.5580    -0.9550     0.4070 cd         1 28B      -0.114000
      6 C06          0.5910    -0.0840    -0.1750 cd         1 28B      -0.088200
      7 C07         -0.8380    -0.4380    -0.1910 ca         1 28B      -0.029800
      8 C08         -1.2440    -1.7610    -0.3770 ca         1 28B      -0.098000
      9 C09         -2.5870    -2.1050    -0.4010 ca         1 28B      -0.128000
     10 C10         -3.5620    -1.1340    -0.2430 ca         1 28B      -0.088000
     11 C11         -3.1650     0.1890    -0.0540 ca         1 28B      -0.014000
     12 C12         -4.1540     1.2040     0.1250 cg         1 28B       0.231800
     13 N13         -4.9550     2.0190     0.2690 n1         1 28B      -0.358800
     14 C14         -1.8170     0.5370    -0.0200 ca         1 28B      -0.091000
     15 C15          1.0320     1.0770    -0.7270 cc         1 28B      -0.015400
     16 N16          2.3540     1.3890    -0.7110 ns         1 28B      -0.410100
     17 H1           4.6670    -0.9820     0.8640 ho         1 28B       0.453000
     18 H2           1.2420    -1.8810     0.8730 ha         1 28B       0.156000
     19 H3          -0.5020    -2.5360    -0.5240 ha         1 28B       0.141000
     20 H4          -2.8750    -3.1360    -0.5520 ha         1 28B       0.141000
     21 H5          -4.6110    -1.3930    -0.2640 ha         1 28B       0.147000
     22 H6          -1.5370     1.5670     0.1600 ha         1 28B       0.141000
     23 H7           0.3910     1.7940    -1.2180 h4         1 28B       0.159000
     24 H8           2.6420     2.2600    -1.1370 hn         1 28B       0.334500
@<TRIPOS>BOND
     1     1     2 2   
     2     2     3 1   
     3     2    16 1   
     4     3     4 1   
     5     3     5 2   
     6     4    17 1   
     7     5     6 1   
     8     5    18 1   
     9     6     7 1   
    10     6    15 2   
    11     7     8 ar  
    12     7    14 ar  
    13     8     9 ar  
    14     8    19 1   
    15     9    10 ar  
    16     9    20 1   
    17    10    11 ar  
    18    10    21 1   
    19    11    12 1   
    20    11    14 ar  
    21    12    13 3   
    22    14    22 1   
    23    15    16 1   
    24    15    23 1   
    25    16    24 1   
@<TRIPOS>SUBSTRUCTURE
     1 28B         1 TEMP              0 ****  ****    0 ROOT
