@<TRIPOS>MOLECULE
28C
   35    37     1     0     0
SMALL
abcg2


@<TRIPOS>ATOM
      1 CAA          3.0750     3.5360    -0.0290 c3         1 28C      -0.147400
      2 CAP          3.0770     2.0410    -0.0280 cc         1 28C       0.384300
      3 CAH          1.8340     1.3550    -0.0200 cc         1 28C      -0.322000
      4 NAM          4.2470     1.4640    -0.0350 nd         1 28C      -0.516800
      5 NAT          4.1860     0.1210    -0.0330 na         1 28C       0.151000
      6 CAG          5.2200    -0.7510    -0.0370 cc         1 28C       0.356700
      7 NAK          4.7590    -1.9730    -0.0330 nd         1 28C      -0.374700
      8 NAL          3.4130    -1.9270    -0.0250 nd         1 28C      -0.098000
      9 CAS          3.0750    -0.6600    -0.0250 cd         1 28C      -0.189000
     10 CAR          1.7930    -0.0230    -0.0190 cd         1 28C       0.432000
     11 NAN          0.6960    -0.7810    -0.0130 nu         1 28C      -0.944200
     12 CAI         -0.6430    -0.2370     0.0050 c3         1 28C       0.224800
     13 CAJ         -1.6750    -1.3570     0.0010 c3         1 28C      -0.039100
     14 CAQ         -3.0730    -0.8060     0.0280 ca         1 28C      -0.127300
     15 CAE         -3.7200    -0.5440     1.2330 ca         1 28C      -0.063500
     16 CAC         -4.9940    -0.0000     1.2700 ca         1 28C      -0.173500
     17 CAO         -5.6550     0.2990     0.0810 ca         1 28C       0.144100
     18 OAB         -6.8950     0.8250     0.1630 oh         1 28C      -0.531100
     19 CAD         -5.0240     0.0440    -1.1330 ca         1 28C      -0.173500
     20 CAF         -3.7480    -0.5000    -1.1490 ca         1 28C      -0.063500
     21 H1           2.5680     3.9170     0.8580 hc         1 28C       0.058033
     22 H2           4.0890     3.9290    -0.0460 hc         1 28C       0.058033
     23 H3           2.5380     3.9170    -0.8980 hc         1 28C       0.058033
     24 H4           0.9270     1.9430    -0.0160 ha         1 28C       0.132000
     25 H5           6.2540    -0.4470    -0.0440 h5         1 28C       0.086800
     26 H6           0.8110    -1.7820    -0.0060 hn         1 28C       0.521000
     27 H7          -0.7780     0.3910     0.8920 h1         1 28C       0.051200
     28 H8          -0.7920     0.4090    -0.8670 h1         1 28C       0.051200
     29 H9          -1.5320    -1.9770    -0.8880 hc         1 28C       0.056700
     30 H10         -1.5100    -2.0020     0.8680 hc         1 28C       0.056700
     31 H11         -3.2230    -0.7740     2.1690 ha         1 28C       0.114000
     32 H12         -5.4790     0.1910     2.2190 ha         1 28C       0.124000
     33 H13         -7.2500     0.9860    -0.7180 ho         1 28C       0.466000
     34 H14         -5.5260     0.2650    -2.0680 ha         1 28C       0.124000
     35 H15         -3.2760    -0.6950    -2.1050 ha         1 28C       0.114000
@<TRIPOS>BOND
     1     1     2 1   
     2     1    21 1   
     3     1    22 1   
     4     1    23 1   
     5     2     3 1   
     6     2     4 2   
     7     3    10 2   
     8     3    24 1   
     9     4     5 1   
    10     5     6 1   
    11     5     9 1   
    12     6     7 2   
    13     6    25 1   
    14     7     8 1   
    15     8     9 2   
    16     9    10 1   
    17    10    11 1   
    18    11    12 1   
    19    11    26 1   
    20    12    13 1   
    21    12    27 1   
    22    12    28 1   
    23    13    14 1   
    24    13    29 1   
    25    13    30 1   
    26    14    15 ar  
    27    14    20 ar  
    28    15    16 ar  
    29    15    31 1   
    30    16    17 ar  
    31    16    32 1   
    32    17    18 1   
    33    17    19 ar  
    34    18    33 1   
    35    19    20 ar  
    36    19    34 1   
    37    20    35 1   
@<TRIPOS>SUBSTRUCTURE
     1 28C         1 TEMP              0 ****  ****    0 ROOT
