@<TRIPOS>MOLECULE
28C
   35    37     1     0     0
SMALL
No Charge or Current Charge


@<TRIPOS>ATOM
      1 CAA          3.1700     3.5610    -0.0070 c3         1 28C      -0.147400
      2 CAP          3.1890     2.0590    -0.0190 cc         1 28C       0.384300
      3 CAH          1.9150     1.4160    -0.0080 cc         1 28C      -0.322000
      4 NAM          4.3810     1.4580    -0.0400 nd         1 28C      -0.516800
      5 NAT          4.3130     0.0630    -0.0500 na         1 28C       0.151000
      6 CAG          5.3190    -0.8730    -0.0710 cc         1 28C       0.356700
      7 NAK          4.7460    -2.0880    -0.0740 nd         1 28C      -0.374700
      8 NAL          3.3560    -1.9530    -0.0540 nd         1 28C      -0.098000
      9 CAS          3.1270    -0.6020    -0.0400 cd         1 28C      -0.189000
     10 CAR          1.8680     0.0580    -0.0180 cd         1 28C       0.432000
     11 NAN          0.7090    -0.6660    -0.0080 nu         1 28C      -0.944200
     12 CAI         -0.6670    -0.1410     0.0140 c3         1 28C       0.224800
     13 CAJ         -1.6980    -1.2880     0.0200 c3         1 28C      -0.039100
     14 CAQ         -3.1300    -0.7680     0.0430 ca         1 28C      -0.127300
     15 CAE         -3.7780    -0.5280     1.2700 ca         1 28C      -0.063500
     16 CAC         -5.0970    -0.0420     1.2890 ca         1 28C      -0.173500
     17 CAO         -5.7730     0.2070     0.0860 ca         1 28C       0.144100
     18 OAB         -7.0510     0.6780     0.1160 oh         1 28C      -0.531100
     19 CAD         -5.1320    -0.0280    -1.1410 ca         1 28C      -0.173500
     20 CAF         -3.8130    -0.5140    -1.1630 ca         1 28C      -0.063500
     21 H1           2.6620     3.9330     0.8910 hc         1 28C       0.058033
     22 H2           4.1820     3.9810    -0.0180 hc         1 28C       0.058033
     23 H3           2.6370     3.9470    -0.8840 hc         1 28C       0.058033
     24 H4           1.0170     2.0180     0.0090 ha         1 28C       0.132000
     25 H5           6.3720    -0.6280    -0.0830 h5         1 28C       0.086800
     26 H6           0.8450    -1.6780    -0.0180 hn         1 28C       0.521000
     27 H7          -0.8170     0.4790     0.9090 h1         1 28C       0.051200
     28 H8          -0.8420     0.4920    -0.8670 h1         1 28C       0.051200
     29 H9          -1.5410    -1.9160    -0.8660 hc         1 28C       0.056700
     30 H10         -1.5170    -1.9290     0.8910 hc         1 28C       0.056700
     31 H11         -3.2610    -0.7160     2.2090 ha         1 28C       0.114000
     32 H12         -5.5940     0.1420     2.2390 ha         1 28C       0.124000
     33 H13         -7.3620     0.7920    -0.8070 ho         1 28C       0.466000
     34 H14         -5.6480     0.1630    -2.0790 ha         1 28C       0.124000
     35 H15         -3.3220    -0.6920    -2.1180 ha         1 28C       0.114000
@<TRIPOS>BOND
     1     1     2 1   
     2     1    21 1   
     3     1    22 1   
     4     1    23 1   
     5     2     3 1   
     6     2     4 2   
     7     3    10 2   
     8     3    24 1   
     9     4     5 1   
    10     5     6 1   
    11     5     9 1   
    12     6     7 2   
    13     6    25 1   
    14     7     8 1   
    15     8     9 2   
    16     9    10 1   
    17    10    11 1   
    18    11    12 1   
    19    11    26 1   
    20    12    13 1   
    21    12    27 1   
    22    12    28 1   
    23    13    14 1   
    24    13    29 1   
    25    13    30 1   
    26    14    15 ar  
    27    14    20 ar  
    28    15    16 ar  
    29    15    31 1   
    30    16    17 ar  
    31    16    32 1   
    32    17    18 1   
    33    17    19 ar  
    34    18    33 1   
    35    19    20 ar  
    36    19    34 1   
    37    20    35 1   
@<TRIPOS>SUBSTRUCTURE
     1 28C         1 TEMP              0 ****  ****    0 ROOT
