@<TRIPOS>MOLECULE
28D
   48    51     1     0     0
SMALL
No Charge or Current Charge


@<TRIPOS>ATOM
      1 C01         -4.2810    -1.3910    -0.0350 ce         1 28D       0.082200
      2 C02         -4.8430    -2.7140     0.0010 cg         1 28D       0.274700
      3 N03         -5.2550    -3.8070     0.0460 n1         1 28D      -0.417000
      4 N04         -5.0270    -0.3500    -0.7050 na         1 28D      -0.000600
      5 C05         -4.5250     0.7790    -1.3190 cc         1 28D       0.436400
      6 N06         -5.5250     1.4490    -1.8680 nd         1 28D      -0.696000
      7 C07         -6.6410     0.6830    -1.5840 cd         1 28D       0.518900
      8 N08         -6.3770    -0.4230    -0.9010 nc         1 28D      -0.518800
      9 C09         -3.0620    -1.1630     0.5500 cf         1 28D      -0.064200
     10 C10         -2.3070     0.0860     0.7740 ca         1 28D      -0.134800
     11 C11         -2.9520     1.2480     1.2760 ca         1 28D      -0.044000
     12 C12         -2.2250     2.4390     1.4860 ca         1 28D      -0.130000
     13 C13         -0.8520     2.4220     1.2160 ca         1 28D      -0.021200
     14 N14          0.0720     3.4470     1.2950 na         1 28D      -0.047400
     15 N15          1.3430     2.9920     0.8950 nc         1 28D      -0.505100
     16 C16          1.1650     1.6890     0.6130 cd         1 28D       0.413500
     17 C17          2.2680     0.8030     0.1700 ca         1 28D      -0.030900
     18 C18          3.3140     1.3110    -0.6210 ca         1 28D      -0.208000
     19 C19          4.3890     0.4880    -1.0150 ca         1 28D       0.154600
     20 O20          5.4140     0.9750    -1.8130 os         1 28D      -0.322100
     21 C21          5.4540     2.3330    -2.2860 c3         1 28D       0.145400
     22 C22          4.4480    -0.8640    -0.6020 ca         1 28D       0.034100
     23 O23          5.5480    -1.6010    -1.0480 os         1 28D      -0.327100
     24 C24          5.7860    -2.9900    -0.7600 c3         1 28D       0.148900
     25 C25          3.4100    -1.3780     0.2350 ca         1 28D       0.154600
     26 O26          3.4470    -2.6900     0.6820 os         1 28D      -0.322100
     27 C27          2.4250    -3.2720     1.5120 c3         1 28D       0.145400
     28 C28          2.3440    -0.5300     0.6160 ca         1 28D      -0.208000
     29 C29         -0.2210     1.3000     0.7840 ca         1 28D      -0.230900
     30 C30         -0.9140     0.1060     0.5320 ca         1 28D       0.003000
     31 H051        -3.4730     1.0300    -1.3600 h5         1 28D       0.072100
     32 H071        -7.6340     0.9720    -1.9120 h5         1 28D       0.068100
     33 H091        -2.5610    -2.0340     0.9800 ha         1 28D       0.197000
     34 H111        -4.0170     1.2300     1.5000 ha         1 28D       0.131000
     35 H121        -2.7180     3.3400     1.8450 ha         1 28D       0.131000
     36 H141        -0.1030     4.4100     1.5780 hn         1 28D       0.384000
     37 H181         3.2660     2.3500    -0.9330 ha         1 28D       0.127500
     38 H213         6.3510     2.4960    -2.8970 h1         1 28D       0.042533
     39 H211         4.5760     2.5550    -2.9070 h1         1 28D       0.042533
     40 H212         5.4820     3.0390    -1.4470 h1         1 28D       0.042533
     41 H243         6.7120    -3.3210    -1.2470 h1         1 28D       0.034367
     42 H241         5.9000    -3.1540     0.3190 h1         1 28D       0.034367
     43 H242         4.9670    -3.6150    -1.1370 h1         1 28D       0.034367
     44 H273         2.3500    -2.7410     2.4690 h1         1 28D       0.042533
     45 H272         1.4500    -3.2410     1.0100 h1         1 28D       0.042533
     46 H271         2.6640    -4.3210     1.7250 h1         1 28D       0.042533
     47 H281         1.5680    -0.8880     1.2840 ha         1 28D       0.127500
     48 H301        -0.4070    -0.7730     0.1410 ha         1 28D       0.123000
@<TRIPOS>BOND
     1     1     2 1   
     2     1     4 1   
     3     1     9 2   
     4     2     3 3   
     5     4     5 1   
     6     4     8 1   
     7     5     6 2   
     8     5    31 1   
     9     6     7 1   
    10     7     8 2   
    11     7    32 1   
    12     9    10 1   
    13     9    33 1   
    14    10    11 ar  
    15    10    30 ar  
    16    11    12 ar  
    17    11    34 1   
    18    12    13 ar  
    19    12    35 1   
    20    13    14 1   
    21    13    29 ar  
    22    14    15 1   
    23    14    36 1   
    24    15    16 2   
    25    16    17 1   
    26    16    29 1   
    27    17    18 ar  
    28    17    28 ar  
    29    18    19 ar  
    30    18    37 1   
    31    19    20 1   
    32    19    22 ar  
    33    20    21 1   
    34    21    38 1   
    35    21    39 1   
    36    21    40 1   
    37    22    23 1   
    38    22    25 ar  
    39    23    24 1   
    40    24    41 1   
    41    24    42 1   
    42    24    43 1   
    43    25    26 1   
    44    25    28 ar  
    45    26    27 1   
    46    27    44 1   
    47    27    45 1   
    48    27    46 1   
    49    28    47 1   
    50    29    30 ar  
    51    30    48 1   
@<TRIPOS>SUBSTRUCTURE
     1 28D         1 TEMP              0 ****  ****    0 ROOT
