@<TRIPOS>MOLECULE
28D
   48    51     1     0     0
SMALL
bcc


@<TRIPOS>ATOM
      1 C01         -4.2950    -1.4230     0.0400 ce         1 28D       0.082200
      2 C02         -4.8290    -2.7440     0.0530 cg         1 28D       0.185500
      3 N03         -5.2780    -3.8060     0.0680 n1         1 28D      -0.327800
      4 N04         -5.1680    -0.4310    -0.4490 na         1 28D      -0.000600
      5 C05         -5.0720     0.2590    -1.5970 cc         1 28D       0.436400
      6 N06         -6.0740     1.0930    -1.6940 nd         1 28D      -0.696000
      7 C07         -6.7770     0.8650    -0.5600 cd         1 28D       0.518900
      8 N08         -6.2660    -0.0520     0.2230 nc         1 28D      -0.518800
      9 C09         -3.0270    -1.1900     0.4210 cf         1 28D      -0.014200
     10 C10         -2.3220     0.0730     0.5300 ca         1 28D      -0.134800
     11 C11         -2.9760     1.3180     0.7420 ca         1 28D      -0.062000
     12 C12         -2.2820     2.4950     0.8200 ca         1 28D      -0.148000
     13 C13         -0.8890     2.4280     0.6830 ca         1 28D      -0.021200
     14 N14          0.0590     3.3830     0.6820 na         1 28D       0.002900
     15 N15          1.2860     2.8850     0.5390 nc         1 28D      -0.505100
     16 C16          1.1730     1.5810     0.4430 cd         1 28D       0.413500
     17 C17          2.3500     0.7300     0.2600 ca         1 28D      -0.030900
     18 C18          3.4540     1.2270    -0.4270 ca         1 28D      -0.226000
     19 C19          4.5800     0.4260    -0.5970 ca         1 28D       0.154600
     20 O20          5.6900     0.8080    -1.2470 os         1 28D      -0.298900
     21 C21          5.7440     2.1190    -1.7760 c3         1 28D       0.122200
     22 C22          4.6030    -0.8720    -0.0750 ca         1 28D       0.034100
     23 O23          5.7100    -1.6430    -0.2210 os         1 28D      -0.303900
     24 C24          5.6970    -2.4730    -1.3770 c3         1 28D       0.125700
     25 C25          3.4890    -1.3630     0.6110 ca         1 28D       0.154600
     26 O26          3.6010    -2.6180     1.0770 os         1 28D      -0.298900
     27 C27          2.4920    -3.1960     1.7360 c3         1 28D       0.122200
     28 C28          2.3660    -0.5590     0.7860 ca         1 28D      -0.226000
     29 C29         -0.2070     1.2090     0.5210 ca         1 28D      -0.230900
     30 C30         -0.9370     0.0240     0.4450 ca         1 28D      -0.015000
     31 H051        -4.2680     0.1150    -2.3030 h5         1 28D       0.072100
     32 H071        -7.6860     1.3890    -0.3070 h5         1 28D       0.068100
     33 H091        -2.4430    -2.0730     0.6560 ha         1 28D       0.147000
     34 H111        -4.0450     1.3500     0.8930 ha         1 28D       0.149000
     35 H121        -2.7910     3.4340     0.9920 ha         1 28D       0.149000
     36 H141        -0.0650     4.3780     0.7860 hn         1 28D       0.333700
     37 H181         3.4140     2.2280    -0.8330 ha         1 28D       0.145500
     38 H213         6.7250     2.2260    -2.2310 h1         1 28D       0.042533
     39 H211         4.9810     2.2820    -2.5420 h1         1 28D       0.042533
     40 H212         5.6290     2.8770    -0.9980 h1         1 28D       0.042533
     41 H243         6.6180    -3.0540    -1.3630 h1         1 28D       0.034367
     42 H241         4.8490    -3.1600    -1.3720 h1         1 28D       0.034367
     43 H242         5.6690    -1.8840    -2.2970 h1         1 28D       0.034367
     44 H273         2.2350    -2.6610     2.6540 h1         1 28D       0.042533
     45 H272         1.6100    -3.2360     1.0910 h1         1 28D       0.042533
     46 H271         2.7820    -4.2110     1.9940 h1         1 28D       0.042533
     47 H281         1.5230    -0.9140     1.3610 ha         1 28D       0.145500
     48 H301        -0.4430    -0.9280     0.2950 ha         1 28D       0.141000
@<TRIPOS>BOND
     1     1     2 1   
     2     1     4 1   
     3     1     9 2   
     4     2     3 3   
     5     4     5 1   
     6     4     8 1   
     7     5     6 2   
     8     5    31 1   
     9     6     7 1   
    10     7     8 2   
    11     7    32 1   
    12     9    10 1   
    13     9    33 1   
    14    10    11 ar  
    15    10    30 ar  
    16    11    12 ar  
    17    11    34 1   
    18    12    13 ar  
    19    12    35 1   
    20    13    14 1   
    21    13    29 ar  
    22    14    15 1   
    23    14    36 1   
    24    15    16 2   
    25    16    17 1   
    26    16    29 1   
    27    17    18 ar  
    28    17    28 ar  
    29    18    19 ar  
    30    18    37 1   
    31    19    20 1   
    32    19    22 ar  
    33    20    21 1   
    34    21    38 1   
    35    21    39 1   
    36    21    40 1   
    37    22    23 1   
    38    22    25 ar  
    39    23    24 1   
    40    24    41 1   
    41    24    42 1   
    42    24    43 1   
    43    25    26 1   
    44    25    28 ar  
    45    26    27 1   
    46    27    44 1   
    47    27    45 1   
    48    27    46 1   
    49    28    47 1   
    50    29    30 ar  
    51    30    48 1   
@<TRIPOS>SUBSTRUCTURE
     1 28D         1 TEMP              0 ****  ****    0 ROOT
