@<TRIPOS>MOLECULE
28E
   35    37     1     0     0
SMALL
No Charge or Current Charge


@<TRIPOS>ATOM
      1 OAB          4.8400    -2.6030     0.4750 oh         1 28E      -0.528100
      2 CAT          4.0570    -1.5020     0.3240 ca         1 28E       0.208100
      3 CAK          4.6460    -0.2390     0.2270 ca         1 28E      -0.220000
      4 CAY          3.8490     0.9000     0.0680 ca         1 28E       0.214100
      5 OAG          4.4550     2.1140    -0.0170 oh         1 28E      -0.535100
      6 CBD          2.4460     0.7900     0.0000 ca         1 28E      -0.294300
      7 CAP          1.5490     2.0290    -0.2050 c6         1 28E      -0.053100
      8 CAN          2.6660    -1.6320     0.2720 ca         1 28E      -0.280000
      9 CBC          1.8610    -0.4960     0.1220 ca         1 28E       0.236100
     10 OAR          0.4950    -0.6750     0.0880 os         1 28E      -0.330100
     11 CBF         -0.3640     0.4760     0.2400 c6         1 28E       0.239600
     12 CBE          0.1200     1.6510    -0.6620 c6         1 28E       0.144300
     13 OAQ          0.1360     1.3020    -2.0620 oh         1 28E      -0.635000
     14 CBA         -1.8210     0.0590    -0.0180 ca         1 28E      -0.088300
     15 CAO         -2.8400     0.4820     0.8630 ca         1 28E      -0.154000
     16 CAV         -4.1750     0.1040     0.6350 ca         1 28E       0.038100
     17 OAD         -5.1620     0.5160     1.4920 oh         1 28E      -0.558100
     18 CAU         -4.4980    -0.6990    -0.4780 ca         1 28E       0.131100
     19 OAC         -5.7950    -1.0600    -0.6910 oh         1 28E      -0.533100
     20 CAI         -3.4910    -1.1230    -1.3580 ca         1 28E      -0.130000
     21 CAJ         -2.1560    -0.7450    -1.1290 ca         1 28E      -0.052000
     22 H1           4.2550    -3.3870     0.5240 ho         1 28E       0.469000
     23 H2           5.7260    -0.1410     0.2750 ha         1 28E       0.146000
     24 H3           3.7510     2.7910    -0.0800 ho         1 28E       0.465000
     25 H4           1.4840     2.5810     0.7440 hc         1 28E       0.046200
     26 H5           1.9910     2.7230    -0.9340 hc         1 28E       0.046200
     27 H6           2.1970    -2.6080     0.3530 ha         1 28E       0.132000
     28 H7          -0.2840     0.8040     1.2860 h1         1 28E       0.052700
     29 H8          -0.5410     2.5160    -0.5030 h1         1 28E       0.042700
     30 H9           0.5330     2.0610    -2.5400 ho         1 28E       0.445000
     31 H10         -2.5890     1.1020     1.7210 ha         1 28E       0.107000
     32 H11         -4.7590     1.0610     2.2040 ho         1 28E       0.473000
     33 H12         -6.3090    -0.6520     0.0430 ho         1 28E       0.481000
     34 H13         -3.7430    -1.7410    -2.2150 ha         1 28E       0.133000
     35 H14         -1.3800    -1.0750    -1.8160 ha         1 28E       0.139000
@<TRIPOS>BOND
     1     1     2 1   
     2     1    22 1   
     3     2     3 ar  
     4     2     8 ar  
     5     3     4 ar  
     6     3    23 1   
     7     4     5 1   
     8     4     6 ar  
     9     5    24 1   
    10     6     7 1   
    11     6     9 ar  
    12     7    12 1   
    13     7    25 1   
    14     7    26 1   
    15     8     9 ar  
    16     8    27 1   
    17     9    10 1   
    18    10    11 1   
    19    11    12 1   
    20    11    14 1   
    21    11    28 1   
    22    12    13 1   
    23    12    29 1   
    24    13    30 1   
    25    14    15 ar  
    26    14    21 ar  
    27    15    16 ar  
    28    15    31 1   
    29    16    17 1   
    30    16    18 ar  
    31    17    32 1   
    32    18    19 1   
    33    18    20 ar  
    34    19    33 1   
    35    20    21 ar  
    36    20    34 1   
    37    21    35 1   
@<TRIPOS>SUBSTRUCTURE
     1 28E         1 TEMP              0 ****  ****    0 ROOT
