@<TRIPOS>MOLECULE
28E
   35    37     1     0     0
SMALL
abcg2


@<TRIPOS>ATOM
      1 OAB          4.8340    -2.5480     0.1990 oh         1 28E      -0.528100
      2 CAT          4.0110    -1.4820     0.1550 ca         1 28E       0.208100
      3 CAK          4.6000    -0.2250     0.0900 ca         1 28E      -0.220000
      4 CAY          3.7890     0.9010     0.0420 ca         1 28E       0.214100
      5 OAG          4.4200     2.0920    -0.0250 oh         1 28E      -0.535100
      6 CBD          2.3930     0.8080     0.0520 ca         1 28E      -0.294300
      7 CAP          1.5050     2.0180    -0.0510 c6         1 28E      -0.053100
      8 CAN          2.6290    -1.6140     0.1860 ca         1 28E      -0.280000
      9 CBC          1.8400    -0.4680     0.1370 ca         1 28E       0.236100
     10 OAR          0.5070    -0.6770     0.1690 os         1 28E      -0.330100
     11 CBF         -0.3490     0.4390     0.3550 c6         1 28E       0.239600
     12 CBE          0.1090     1.6110    -0.5060 c6         1 28E       0.144300
     13 OAQ          0.0870     1.1910    -1.8440 oh         1 28E      -0.635000
     14 CBA         -1.7550     0.0030     0.0560 ca         1 28E      -0.088300
     15 CAO         -2.7980     0.5780     0.7790 ca         1 28E      -0.154000
     16 CAV         -4.1180     0.2550     0.5120 ca         1 28E       0.038100
     17 OAD         -5.1730     0.7820     1.1760 oh         1 28E      -0.558100
     18 CAU         -4.4180    -0.6760    -0.4900 ca         1 28E       0.131100
     19 OAC         -5.6890    -1.0270    -0.7770 oh         1 28E      -0.533100
     20 CAI         -3.3780    -1.2510    -1.2040 ca         1 28E      -0.130000
     21 CAJ         -2.0570    -0.9120    -0.9420 ca         1 28E      -0.052000
     22 H1           4.3230    -3.3640     0.2370 ho         1 28E       0.469000
     23 H2           5.6780    -0.1210     0.0790 ha         1 28E       0.146000
     24 H3           3.7960     2.8250     0.0090 ho         1 28E       0.465000
     25 H4           1.4280     2.5400     0.9080 hc         1 28E       0.046200
     26 H5           1.9010     2.7510    -0.7630 hc         1 28E       0.046200
     27 H6           2.1580    -2.5880     0.2510 ha         1 28E       0.132000
     28 H7          -0.2900     0.7670     1.4020 h1         1 28E       0.052700
     29 H8          -0.5810     2.4460    -0.3280 h1         1 28E       0.042700
     30 H9           0.3880     1.9210    -2.3940 ho         1 28E       0.445000
     31 H10         -2.5800     1.2890     1.5700 ha         1 28E       0.107000
     32 H11         -4.8760     1.3710     1.8790 ho         1 28E       0.473000
     33 H12         -6.3040    -0.5980    -0.1710 ho         1 28E       0.481000
     34 H13         -3.6090    -1.9720    -1.9780 ha         1 28E       0.133000
     35 H14         -1.2730    -1.3800    -1.5200 ha         1 28E       0.139000
@<TRIPOS>BOND
     1     1     2 1   
     2     1    22 1   
     3     2     3 ar  
     4     2     8 ar  
     5     3     4 ar  
     6     3    23 1   
     7     4     5 1   
     8     4     6 ar  
     9     5    24 1   
    10     6     7 1   
    11     6     9 ar  
    12     7    12 1   
    13     7    25 1   
    14     7    26 1   
    15     8     9 ar  
    16     8    27 1   
    17     9    10 1   
    18    10    11 1   
    19    11    12 1   
    20    11    14 1   
    21    11    28 1   
    22    12    13 1   
    23    12    29 1   
    24    13    30 1   
    25    14    15 ar  
    26    14    21 ar  
    27    15    16 ar  
    28    15    31 1   
    29    16    17 1   
    30    16    18 ar  
    31    17    32 1   
    32    18    19 1   
    33    18    20 ar  
    34    19    33 1   
    35    20    21 ar  
    36    20    34 1   
    37    21    35 1   
@<TRIPOS>SUBSTRUCTURE
     1 28E         1 TEMP              0 ****  ****    0 ROOT
