@<TRIPOS>MOLECULE
28F
   48    51     1     0     0
SMALL
No Charge or Current Charge


@<TRIPOS>ATOM
      1 C1           9.4390    -0.1480     0.1620 c3         1 28F      -0.115100
      2 C2           8.2070     0.7630     0.0430 c3         1 28F       0.119000
      3 O5           5.5430     1.7520    -0.1180 o          1 28F      -0.617100
      4 N6           4.7160    -0.3760     0.0700 ns         1 28F      -0.420400
      5 C7           3.3580    -0.1880     0.0190 cc         1 28F       0.449800
      6 C9           1.2790    -0.8800     0.0360 ca         1 28F       0.043400
      7 C10          0.1820    -1.7480     0.0960 ca         1 28F       0.005000
      8 C11         -1.1270    -1.2060     0.0190 cp         1 28F      -0.104000
      9 C12         -1.2390     0.2130    -0.1320 ca         1 28F       0.601300
     10 C14          1.0440     0.4760    -0.1010 ca         1 28F       0.360300
     11 C19         -4.6840     3.8660    -0.5220 c5         1 28F      -0.109400
     12 C20         -6.1990     3.7720    -0.1690 c5         1 28F       0.149600
     13 C22         -5.0990     1.8930     0.6930 c5         1 28F       0.155600
     14 C24         -2.3480    -3.3570    -0.5980 ca         1 28F       0.120400
     15 N25         -3.4070    -4.1890    -0.5390 nb         1 28F      -0.173500
     16 N3           6.9640    -0.0070     0.0880 ns         1 28F      -0.511900
     17 C4           5.7160     0.5520     0.0030 c          1 28F       0.660100
     18 N8           2.6080    -1.2890     0.1080 nd         1 28F      -0.601100
     19 N13         -0.1740     1.0480    -0.1900 nb         1 28F      -0.715000
     20 S15          2.5370     1.3890    -0.1550 ss         1 28F      -0.045500
     21 O16         -2.5060     0.7340    -0.2630 os         1 28F      -0.465300
     22 C17         -2.7270     2.1520    -0.3570 c3         1 28F       0.180600
     23 C18         -4.2470     2.3760    -0.5000 c5         1 28F      -0.110700
     24 O21         -6.3930     2.4550     0.4030 os         1 28F      -0.448000
     25 C23         -2.3170    -2.1170     0.0890 cp         1 28F      -0.122000
     26 C26         -4.4480    -3.7860     0.2190 ca         1 28F       0.116900
     27 N27         -4.5330    -2.6400     0.9250 nb         1 28F      -0.173500
     28 C28         -3.4700    -1.8130     0.8590 ca         1 28F       0.120400
     29 H1          10.3570     0.4500     0.1260 hc         1 28F       0.046367
     30 H2           9.4240    -0.6980     1.1110 hc         1 28F       0.046367
     31 H3           9.4680    -0.8720    -0.6610 hc         1 28F       0.046367
     32 H4           8.2070     1.4900     0.8660 h1         1 28F       0.056700
     33 H5           8.2510     1.3160    -0.9050 h1         1 28F       0.056700
     34 H6           5.0190    -1.3320     0.1700 hn         1 28F       0.335500
     35 H7           0.3390    -2.8170     0.2120 ha         1 28F       0.140000
     36 H9          -4.1490     4.4580     0.2300 hc         1 28F       0.053200
     37 H10         -6.4990     4.5390     0.5570 h1         1 28F       0.046200
     38 H11         -6.8350     3.8640    -1.0600 h1         1 28F       0.046200
     39 H12         -5.1700     0.7990     0.7600 h1         1 28F       0.052700
     40 H13         -4.7350     2.2890     1.6510 h1         1 28F       0.052700
     41 H14         -1.5110    -3.6810    -1.2140 h4         1 28F       0.029100
     42 H15          7.0260    -1.0120     0.1870 hn         1 28F       0.319500
     43 H16         -2.3610     2.6650     0.5430 h1         1 28F       0.054200
     44 H17         -2.2150     2.5730    -1.2320 h1         1 28F       0.054200
     45 H18         -4.5610     1.8670    -1.4190 hc         1 28F       0.076700
     46 H19         -5.3050    -4.4560     0.2690 h5         1 28F       0.051100
     47 H20         -3.5340    -0.8990     1.4460 h4         1 28F       0.029100
     48 H8          -4.5110     4.3420    -1.4940 hc         1 28F       0.053200
@<TRIPOS>BOND
     1     1     2 1   
     2     1    29 1   
     3     1    30 1   
     4     1    31 1   
     5     2    16 1   
     6     2    32 1   
     7     2    33 1   
     8     3    17 2   
     9     4     5 1   
    10     4    17 1   
    11     4    34 1   
    12     5    18 2   
    13     5    20 1   
    14     6     7 ar  
    15     6    10 ar  
    16     6    18 1   
    17     7     8 ar  
    18     7    35 1   
    19     8     9 ar  
    20     8    25 1   
    21     9    19 ar  
    22     9    21 1   
    23    10    19 ar  
    24    10    20 1   
    25    11    12 1   
    26    11    23 1   
    27    11    36 1   
    28    11    48 1   
    29    12    24 1   
    30    12    37 1   
    31    12    38 1   
    32    13    23 1   
    33    13    24 1   
    34    13    39 1   
    35    13    40 1   
    36    14    15 ar  
    37    14    25 ar  
    38    14    41 1   
    39    15    26 ar  
    40    16    17 1   
    41    16    42 1   
    42    21    22 1   
    43    22    23 1   
    44    22    43 1   
    45    22    44 1   
    46    23    45 1   
    47    25    28 ar  
    48    26    27 ar  
    49    26    46 1   
    50    27    28 ar  
    51    28    47 1   
@<TRIPOS>SUBSTRUCTURE
     1 28F         1 TEMP              0 ****  ****    0 ROOT
