@<TRIPOS>MOLECULE
28F
   48    51     1     0     0
SMALL
bcc


@<TRIPOS>ATOM
      1 C1           9.2020     0.4070     0.2910 c3         1 28F      -0.115100
      2 C2           7.8570     1.0770     0.0890 c3         1 28F       0.119000
      3 O5           5.1080     1.5590    -0.2090 o          1 28F      -0.617100
      4 N6           4.6200    -0.6350     0.0920 ns         1 28F      -0.487400
      5 C7           3.2680    -0.5110     0.0030 cc         1 28F       0.449800
      6 C9           1.1790    -1.1490     0.0000 ca         1 28F      -0.021900
      7 C10          0.0470    -1.9580     0.0810 ca         1 28F      -0.013000
      8 C11         -1.2020    -1.3760    -0.0340 cp         1 28F      -0.169300
      9 C12         -1.2670     0.0230    -0.2480 ca         1 28F       0.666600
     10 C14          0.9690     0.2130    -0.1990 ca         1 28F       0.425600
     11 C19         -4.3440     3.7920    -0.6860 c5         1 28F      -0.109400
     12 C20         -5.5700     4.0130     0.2170 c5         1 28F       0.126400
     13 C22         -4.8270     1.9080     0.6860 c5         1 28F       0.132400
     14 C24         -2.5830    -3.3440    -0.7130 ca         1 28F       0.448700
     15 N25         -3.6660    -4.1060    -0.6380 nb         1 28F      -0.699500
     16 N3           6.7960     0.0860     0.1370 ns         1 28F      -0.578900
     17 C4           5.5090     0.4210    -0.0060 c          1 28F       0.794100
     18 N8           2.4900    -1.5340     0.1120 nd         1 28F      -0.601100
     19 N13         -0.2100     0.7980    -0.3270 nb         1 28F      -0.715000
     20 S15          2.4990     1.0460    -0.2530 ss         1 28F      -0.045500
     21 O16         -2.4820     0.5510    -0.3860 os         1 28F      -0.442100
     22 C17         -2.6070     1.9620    -0.5540 c3         1 28F       0.157400
     23 C18         -4.0820     2.2810    -0.5930 c5         1 28F      -0.110700
     24 O21         -5.9640     2.7390     0.6980 os         1 28F      -0.401600
     25 C23         -2.4230    -2.1910     0.0480 cp         1 28F      -0.252600
     26 C26         -4.6090    -3.7150     0.2040 ca         1 28F       0.642900
     27 N27         -4.5660    -2.6450     0.9840 nb         1 28F      -0.699500
     28 C28         -3.4780    -1.8940     0.9060 ca         1 28F       0.448700
     29 H1           9.9950     1.1510     0.2540 hc         1 28F       0.046367
     30 H2           9.2540    -0.0910     1.2600 hc         1 28F       0.046367
     31 H3           9.4000    -0.3320    -0.4860 hc         1 28F       0.046367
     32 H4           7.6980     1.8310     0.8630 h1         1 28F       0.056700
     33 H5           7.8380     1.5930    -0.8730 h1         1 28F       0.056700
     34 H6           4.9550    -1.5740     0.2600 hn         1 28F       0.335500
     35 H7           0.1460    -3.0230     0.2510 ha         1 28F       0.158000
     36 H9          -3.4870     4.3610    -0.3190 hc         1 28F       0.053200
     37 H10         -5.3180     4.6790     1.0500 h1         1 28F       0.046200
     38 H11         -6.4140     4.4530    -0.3160 h1         1 28F       0.046200
     39 H12         -5.1580     0.8690     0.7170 h1         1 28F       0.052700
     40 H13         -4.1860     2.0880     1.5650 h1         1 28F       0.052700
     41 H14         -1.8120    -3.6530    -1.4110 h4         1 28F       0.029100
     42 H15          7.0470    -0.8690     0.3380 hn         1 28F       0.319500
     43 H16         -2.1280     2.4840     0.2810 h1         1 28F       0.054200
     44 H17         -2.1080     2.2780    -1.4740 h1         1 28F       0.054200
     45 H18         -4.5450     1.7730    -1.4440 hc         1 28F       0.076700
     46 H19         -5.5000    -4.3300     0.2630 h5         1 28F       0.051100
     47 H20         -3.4330    -1.0320     1.5630 h4         1 28F       0.029100
     48 H8          -4.5250     4.1060    -1.7130 hc         1 28F       0.053200
@<TRIPOS>BOND
     1     1     2 1   
     2     1    29 1   
     3     1    30 1   
     4     1    31 1   
     5     2    16 1   
     6     2    32 1   
     7     2    33 1   
     8     3    17 2   
     9     4     5 1   
    10     4    17 1   
    11     4    34 1   
    12     5    18 2   
    13     5    20 1   
    14     6     7 ar  
    15     6    10 ar  
    16     6    18 1   
    17     7     8 ar  
    18     7    35 1   
    19     8     9 ar  
    20     8    25 1   
    21     9    19 ar  
    22     9    21 1   
    23    10    19 ar  
    24    10    20 1   
    25    11    12 1   
    26    11    23 1   
    27    11    36 1   
    28    11    48 1   
    29    12    24 1   
    30    12    37 1   
    31    12    38 1   
    32    13    23 1   
    33    13    24 1   
    34    13    39 1   
    35    13    40 1   
    36    14    15 ar  
    37    14    25 ar  
    38    14    41 1   
    39    15    26 ar  
    40    16    17 1   
    41    16    42 1   
    42    21    22 1   
    43    22    23 1   
    44    22    43 1   
    45    22    44 1   
    46    23    45 1   
    47    25    28 ar  
    48    26    27 ar  
    49    26    46 1   
    50    27    28 ar  
    51    28    47 1   
@<TRIPOS>SUBSTRUCTURE
     1 28F         1 TEMP              0 ****  ****    0 ROOT
