@<TRIPOS>MOLECULE
28G
   55    58     1     0     0
SMALL
No Charge or Current Charge


@<TRIPOS>ATOM
      1 C1         -10.0120    -0.8370     0.0000 c2         1 28G      -0.299000
      2 C2          -9.5630     0.3450    -0.4540 c2         1 28G      -0.255200
      3 C3          -8.3970     1.1180     0.1200 c3         1 28G       0.145200
      4 C8          -3.5780     0.0450     0.1030 cc         1 28G       0.444800
      5 C10         -1.5120    -0.6710    -0.0410 ca         1 28G       0.040400
      6 C11         -0.4230    -1.4930    -0.3590 ca         1 28G      -0.001000
      7 C12          0.8820    -1.0780     0.0140 cp         1 28G      -0.098000
      8 C13          0.9950     0.1680     0.7080 ca         1 28G       0.604300
      9 C15         -1.2740     0.5150     0.6300 ca         1 28G       0.363300
     10 O17          2.2520     0.5460     1.1100 os         1 28G      -0.450300
     11 C19          4.0560     2.0380     1.7840 c3         1 28G       0.167800
     12 C21          4.7360     2.5270    -0.5840 c6         1 28G       0.133300
     13 C22          5.6770     2.0960    -1.7490 c6         1 28G       0.151600
     14 C24          7.2960     1.2420    -0.1820 c6         1 28G       0.151600
     15 C27          2.0110    -3.3420    -0.1810 ca         1 28G      -0.068000
     16 C31          3.2840    -1.3880    -0.8270 ca         1 28G       0.367900
     17 C28          3.1330    -4.1120    -0.5260 ca         1 28G      -0.169000
     18 C29          4.2830    -3.4720    -1.0130 ca         1 28G       0.335900
     19 C26          2.0680    -1.9350    -0.3250 cp         1 28G      -0.074000
     20 C5          -5.9220     0.8170     0.2440 c          1 28G       0.660100
     21 C25          6.3920     1.6580     1.0170 c6         1 28G       0.133300
     22 C18          2.5300     1.8980     1.5310 c3         1 28G       0.174600
     23 N30          4.3650    -2.1330    -1.1700 nb         1 28G      -0.679000
     24 N9          -2.8360    -0.9650    -0.3570 nd         1 28G      -0.599100
     25 N14         -0.0600     0.9580     1.0160 nb         1 28G      -0.719000
     26 N20          4.9460     1.6850     0.6380 n3         1 28G      -0.730600
     27 N7          -4.9300    -0.0530    -0.1110 ns         1 28G      -0.420400
     28 N4          -7.1640     0.3850    -0.1370 ns         1 28G      -0.502900
     29 O6          -5.7470     1.8690     0.8340 o          1 28G      -0.614100
     30 O23          7.0590     2.1130    -1.3150 os         1 28G      -0.453000
     31 S16         -2.7560     1.3950     0.9330 ss         1 28G      -0.054500
     32 H1         -10.8630    -1.3410    -0.4610 ha         1 28G       0.164500
     33 H2          -9.5490    -1.3410     0.8510 ha         1 28G       0.164500
     34 H3         -10.0450     0.8340    -1.3050 ha         1 28G       0.187000
     35 H4          -8.3310     2.1120    -0.3440 h1         1 28G       0.067200
     36 H5          -8.5220     1.2480     1.2030 h1         1 28G       0.067200
     37 H6          -0.5840    -2.4250    -0.8950 ha         1 28G       0.137000
     38 H7           4.2520     3.0720     2.0990 h1         1 28G       0.046200
     39 H8           4.3010     1.3990     2.6430 h1         1 28G       0.046200
     40 H10          3.6980     2.4480    -0.9360 h1         1 28G       0.039700
     41 H11          5.4150     1.0830    -2.0860 h1         1 28G       0.054950
     42 H12          5.5580     2.7820    -2.6000 h1         1 28G       0.054950
     43 H13          8.3540     1.3050     0.1060 h1         1 28G       0.054950
     44 H14          7.0800     0.2030    -0.4710 h1         1 28G       0.054950
     45 H15          1.1150    -3.8270     0.2010 ha         1 28G       0.119000
     46 H16          3.3810    -0.3150    -0.9880 h4         1 28G       0.044100
     47 H17          3.1170    -5.1940    -0.4200 ha         1 28G       0.122000
     48 H18          5.1650    -4.0490    -1.2910 h4         1 28G       0.016100
     49 H19          6.5570     0.9510     1.8430 h1         1 28G       0.039700
     50 H20          6.7130     2.6490     1.3720 h1         1 28G       0.039700
     51 H21          2.2190     2.6180     0.7630 h1         1 28G       0.051700
     52 H22          1.9900     2.1370     2.4560 h1         1 28G       0.051700
     53 H24         -5.2350    -0.8810    -0.5960 hn         1 28G       0.335500
     54 H25         -7.2330    -0.5000    -0.6220 hn         1 28G       0.316500
     55 H9           4.9210     3.5870    -0.3540 h1         1 28G       0.039700
@<TRIPOS>BOND
     1     1     2 2   
     2     1    32 1   
     3     1    33 1   
     4     2     3 1   
     5     2    34 1   
     6     3    28 1   
     7     3    35 1   
     8     3    36 1   
     9     4    24 2   
    10     4    27 1   
    11     4    31 1   
    12     5     6 ar  
    13     5     9 ar  
    14     5    24 1   
    15     6     7 ar  
    16     6    37 1   
    17     7     8 ar  
    18     7    19 1   
    19     8    10 1   
    20     8    25 ar  
    21     9    25 ar  
    22     9    31 1   
    23    10    22 1   
    24    11    22 1   
    25    11    26 1   
    26    11    38 1   
    27    11    39 1   
    28    12    13 1   
    29    12    26 1   
    30    12    40 1   
    31    12    55 1   
    32    13    30 1   
    33    13    41 1   
    34    13    42 1   
    35    14    21 1   
    36    14    30 1   
    37    14    43 1   
    38    14    44 1   
    39    15    17 ar  
    40    15    19 ar  
    41    15    45 1   
    42    16    19 ar  
    43    16    23 ar  
    44    16    46 1   
    45    17    18 ar  
    46    17    47 1   
    47    18    23 ar  
    48    18    48 1   
    49    20    27 1   
    50    20    28 1   
    51    20    29 2   
    52    21    26 1   
    53    21    49 1   
    54    21    50 1   
    55    22    51 1   
    56    22    52 1   
    57    27    53 1   
    58    28    54 1   
@<TRIPOS>SUBSTRUCTURE
     1 28G         1 TEMP              0 ****  ****    0 ROOT
