@<TRIPOS>MOLECULE
28H
   23    22     1     0     0
SMALL
No Charge or Current Charge


@<TRIPOS>ATOM
      1 CCB         -2.2950     0.8230    -1.2520 c3         1 28H      -0.077600
      2 CCA         -1.9500     0.3310     0.1790 c3         1 28H      -0.095700
      3 CCC         -3.0810    -0.5670     0.7380 c3         1 28H      -0.077600
      4 CBZ         -0.5460    -0.3520     0.3020 c3         1 28H       0.187300
      5 OCF         -0.5340    -1.5390    -0.4990 oh         1 28H      -0.661000
      6 CBY          0.6730     0.5270    -0.1030 c3         1 28H      -0.229700
      7 CCE          0.7210     1.8980     0.6210 c3         1 28H      -0.056100
      8 CBX          1.9910    -0.2390     0.1410 c          1 28H       0.725000
      9 OCD          2.2810    -0.5580     1.2860 o          1 28H      -0.733000
     10 H1          -1.5580     1.5500    -1.6120 hc         1 28H       0.021867
     11 H2          -2.3350    -0.0110    -1.9620 hc         1 28H       0.021867
     12 H3          -3.2730     1.3190    -1.2600 hc         1 28H       0.021867
     13 H4          -1.9380     1.2170     0.8240 hc         1 28H       0.040700
     14 H5          -3.2180    -1.4650     0.1230 hc         1 28H       0.021867
     15 H6          -2.8530    -0.8830     1.7630 hc         1 28H       0.021867
     16 H7          -4.0320    -0.0220     0.7580 hc         1 28H       0.021867
     17 H8          -0.4140    -0.6250     1.3590 h1         1 28H       0.077700
     18 H9          -0.7640    -1.2580    -1.4090 ho         1 28H       0.432000
     19 H10          0.6070     0.7340    -1.1790 hc         1 28H       0.028700
     20 H11          0.6710     1.7700     1.7090 hc         1 28H       0.013033
     21 H12          1.6530     2.4230     0.3800 hc         1 28H       0.013033
     22 H13         -0.1090     2.5430     0.3090 hc         1 28H       0.013033
     23 OXT          2.7200    -0.4500    -0.8180 o          1 28H      -0.733000
@<TRIPOS>BOND
     1     1     2 1   
     2     1    10 1   
     3     1    11 1   
     4     1    12 1   
     5     2     3 1   
     6     2     4 1   
     7     2    13 1   
     8     3    14 1   
     9     3    15 1   
    10     3    16 1   
    11     4     5 1   
    12     4     6 1   
    13     4    17 1   
    14     5    18 1   
    15     6     7 1   
    16     6     8 1   
    17     6    19 1   
    18     7    20 1   
    19     7    21 1   
    20     7    22 1   
    21     8     9 1   
    22     8    23 1   
@<TRIPOS>SUBSTRUCTURE
     1 28H         1 TEMP              0 ****  ****    0 ROOT
