@<TRIPOS>MOLECULE
28H
   23    22     1     0     0
SMALL
bcc


@<TRIPOS>ATOM
      1 CCB         -2.2660     0.8270    -1.2430 c3         1 28H      -0.077600
      2 CCA         -1.9490     0.3750     0.1800 c3         1 28H      -0.095700
      3 CCC         -3.0540    -0.5350     0.7100 c3         1 28H      -0.077600
      4 CBZ         -0.5760    -0.3020     0.3150 c3         1 28H       0.164100
      5 OCF         -0.5520    -1.5580    -0.3480 oh         1 28H      -0.598800
      6 CBY          0.6130     0.5530    -0.1270 c3         1 28H      -0.229700
      7 CCE          0.6990     1.8650     0.6480 c3         1 28H      -0.056100
      8 CBX          1.9180    -0.2520     0.0520 c          1 28H       0.935600
      9 OCD          2.2090    -0.5800     1.2210 o          1 28H      -0.838300
     10 H1          -1.5770     1.5920    -1.6020 hc         1 28H       0.021867
     11 H2          -2.2360    -0.0070    -1.9480 hc         1 28H       0.021867
     12 H3          -3.2710     1.2500    -1.2950 hc         1 28H       0.021867
     13 H4          -1.9270     1.2630     0.8200 hc         1 28H       0.040700
     14 H5          -3.1820    -1.4160     0.0810 hc         1 28H       0.021867
     15 H6          -2.8370    -0.8790     1.7240 hc         1 28H       0.021867
     16 H7          -4.0080    -0.0070     0.7390 hc         1 28H       0.021867
     17 H8          -0.4340    -0.5360     1.3760 h1         1 28H       0.077700
     18 H9          -0.4260    -1.4000    -1.2890 ho         1 28H       0.393000
     19 H10          0.4990     0.7880    -1.1920 hc         1 28H       0.028700
     20 H11          0.7400     1.6840     1.7230 hc         1 28H       0.013033
     21 H12          1.5970     2.4210     0.3720 hc         1 28H       0.013033
     22 H13         -0.1520     2.5190     0.4500 hc         1 28H       0.013033
     23 OXT          2.5880    -0.4990    -0.9710 o          1 28H      -0.838300
@<TRIPOS>BOND
     1     1     2 1   
     2     1    10 1   
     3     1    11 1   
     4     1    12 1   
     5     2     3 1   
     6     2     4 1   
     7     2    13 1   
     8     3    14 1   
     9     3    15 1   
    10     3    16 1   
    11     4     5 1   
    12     4     6 1   
    13     4    17 1   
    14     5    18 1   
    15     6     7 1   
    16     6     8 1   
    17     6    19 1   
    18     7    20 1   
    19     7    21 1   
    20     7    22 1   
    21     8     9 1   
    22     8    23 1   
@<TRIPOS>SUBSTRUCTURE
     1 28H         1 TEMP              0 ****  ****    0 ROOT
