@<TRIPOS>MOLECULE
28I
   46    48     1     0     0
SMALL
bcc


@<TRIPOS>ATOM
      1 C1          -0.8190    -0.8690    -0.2950 ca         1 28I       0.652900
      2 C2          -0.0500     0.3210    -0.0720 ca         1 28I       0.285500
      3 N6           6.1520     0.0090    -0.3370 n2         1 28I      -0.824100
      4 C7           5.2100     0.6890     0.1800 c2         1 28I       0.660800
      5 C9          -0.8490     3.7990     0.6760 cc         1 28I       0.219600
      6 C10         -1.5840     2.2540    -0.6650 cc         1 28I       0.251600
      7 C11         -2.8700    -2.0720    -0.6840 c3         1 28I       0.212800
      8 C12         -4.3500    -1.8590    -0.9860 c3         1 28I      -0.080900
      9 C14         -5.3490    -0.3060     0.8180 c3         1 28I      -0.072900
     10 N3           1.6540    -3.1800    -1.1850 nv         1 28I      -0.947500
     11 C4           1.1250    -2.0350    -0.7380 ca         1 28I       0.683900
     12 O1           4.0310    -1.8940    -0.5530 o          1 28I      -0.581100
     13 C6           3.3630    -0.9050    -0.2980 c          1 28I       0.623600
     14 N5           3.8760     0.3050     0.0710 ns         1 28I      -0.501400
     15 N7           5.3170     1.8990     0.8240 nv         1 28I      -0.971800
     16 C3           1.8870    -0.9110    -0.3460 ca         1 28I       0.093500
     17 N1          -0.2070    -1.9780    -0.6640 nb         1 28I      -0.837000
     18 N2           1.2560     0.2250    -0.0660 nb         1 28I      -0.600000
     19 C5          -0.6000     1.6720     0.0660 cd         1 28I      -0.265800
     20 C8          -0.1120     2.6990     0.9400 cd         1 28I      -0.249300
     21 O2          -1.7440     3.5400    -0.3000 os         1 28I      -0.325800
     22 N4          -2.1790    -0.9010    -0.1610 nh         1 28I      -0.763300
     23 C16         -2.7830    -0.2940     1.0280 c3         1 28I       0.212800
     24 C15         -4.0530     0.5010     0.7420 c3         1 28I      -0.080900
     25 C13         -5.2560    -1.7190     0.2370 c3         1 28I      -0.072900
     26 H1           7.0460     0.4340    -0.1160 hn         1 28I       0.378400
     27 H2          -0.8500     4.7970     1.0840 h4         1 28I       0.052100
     28 H3          -2.2210     1.8860    -1.4530 h4         1 28I       0.060100
     29 H4          -2.7730    -2.9180     0.0110 h1         1 28I       0.049450
     30 H5          -2.3710    -2.3670    -1.6050 h1         1 28I       0.049450
     31 H6          -4.4790    -1.0150    -1.6710 hc         1 28I       0.048450
     32 H7          -4.6600    -2.7470    -1.5430 hc         1 28I       0.048450
     33 H8          -5.6750    -0.3780     1.8590 hc         1 28I       0.039200
     34 H9          -6.1300     0.2520     0.2970 hc         1 28I       0.039200
     35 H10          1.0450    -3.9620    -1.3570 hn         1 28I       0.460300
     36 H11          2.6480    -3.3260    -1.1460 hn         1 28I       0.460300
     37 H12          3.1720     1.0080     0.2550 hn         1 28I       0.351500
     38 H13          6.2550     2.1930     1.0480 hn         1 28I       0.401800
     39 H14          4.6690     2.0830     1.5740 hn         1 28I       0.401800
     40 H15          0.6770     2.6080     1.6690 ha         1 28I       0.162000
     41 H16         -2.9870    -1.0920     1.7550 h1         1 28I       0.049450
     42 H17         -2.0490     0.3480     1.5080 h1         1 28I       0.049450
     43 H18         -3.9600     0.9620    -0.2420 hc         1 28I       0.048450
     44 H19         -4.1120     1.3290     1.4520 hc         1 28I       0.048450
     45 H20         -6.2630    -2.0520    -0.0210 hc         1 28I       0.039200
     46 H21         -4.9070    -2.4160     1.0060 hc         1 28I       0.039200
@<TRIPOS>BOND
     1     1     2 ar  
     2     1    17 ar  
     3     1    22 1   
     4     2    18 ar  
     5     2    19 1   
     6     3     4 2   
     7     3    26 1   
     8     4    14 1   
     9     4    15 1   
    10     5    20 2   
    11     5    21 1   
    12     5    27 1   
    13     6    19 2   
    14     6    21 1   
    15     6    28 1   
    16     7     8 1   
    17     7    22 1   
    18     7    29 1   
    19     7    30 1   
    20     8    25 1   
    21     8    31 1   
    22     8    32 1   
    23     9    24 1   
    24     9    25 1   
    25     9    33 1   
    26     9    34 1   
    27    10    11 1   
    28    10    35 1   
    29    10    36 1   
    30    11    16 ar  
    31    11    17 ar  
    32    12    13 2   
    33    13    14 1   
    34    13    16 1   
    35    14    37 1   
    36    15    38 1   
    37    15    39 1   
    38    16    18 ar  
    39    19    20 1   
    40    20    40 1   
    41    22    23 1   
    42    23    24 1   
    43    23    41 1   
    44    23    42 1   
    45    24    43 1   
    46    24    44 1   
    47    25    45 1   
    48    25    46 1   
@<TRIPOS>SUBSTRUCTURE
     1 28I         1 TEMP              0 ****  ****    0 ROOT
