@<TRIPOS>MOLECULE
28I
   46    48     1     0     0
SMALL
No Charge or Current Charge


@<TRIPOS>ATOM
      1 C1          -0.7990    -0.7450     0.2090 ca         1 28I       0.652900
      2 C2          -0.0280     0.4630    -0.0340 ca         1 28I       0.285500
      3 N6           6.2730    -0.2360    -0.6140 n2         1 28I      -0.824100
      4 C7           5.4120     0.5310    -0.1160 c2         1 28I       0.660800
      5 C9          -0.8030     4.0040    -0.7410 cc         1 28I       0.109900
      6 C10         -1.9160     2.2010    -0.1130 cc         1 28I       0.141900
      7 C11         -2.8110    -0.9130    -1.2060 c3         1 28I       0.212800
      8 C12         -4.2920    -0.4830    -1.3390 c3         1 28I      -0.080900
      9 C14         -5.4880    -1.1540     0.8840 c3         1 28I      -0.072900
     10 N3           1.5080    -3.1960     0.6840 nv         1 28I      -1.057900
     11 C4           1.1060    -1.9420     0.4490 ca         1 28I       0.683900
     12 O1           4.0330    -1.8960     0.6130 o          1 28I      -0.581100
     13 C6           3.4310    -0.8790     0.2840 c          1 28I       0.556600
     14 N5           4.0780     0.2910    -0.0300 ns         1 28I      -0.434400
     15 N7           5.6250     1.8270     0.1340 nv         1 28I      -1.082200
     16 C3           1.9160    -0.7830     0.2270 ca         1 28I       0.093500
     17 N1          -0.2210    -1.9470     0.4480 nb         1 28I      -0.837000
     18 N2           1.3370     0.4390    -0.0220 nb         1 28I      -0.600000
     19 C5          -0.6080     1.8100    -0.2660 cd         1 28I      -0.200500
     20 C8           0.0940     2.9780    -0.6590 cd         1 28I      -0.166000
     21 O2          -2.0510     3.5400    -0.4080 os         1 28I      -0.237000
     22 N4          -2.2060    -0.8420     0.1440 nh         1 28I      -0.763300
     23 C16         -2.9260    -1.4950     1.2650 c3         1 28I       0.212800
     24 C15         -4.2210    -0.7710     1.6860 c3         1 28I      -0.080900
     25 C13         -5.2910    -1.4210    -0.6270 c3         1 28I      -0.072900
     26 H1           7.1630     0.2710    -0.6750 hn         1 28I       0.378400
     27 H2          -0.6970     5.0480    -1.0030 h4         1 28I       0.052100
     28 H3          -2.8050     1.6790     0.2050 h4         1 28I       0.060100
     29 H4          -2.7150    -1.9400    -1.5860 h1         1 28I       0.049450
     30 H5          -2.2300    -0.2740    -1.8850 h1         1 28I       0.049450
     31 H6          -4.4260     0.5480    -0.9930 hc         1 28I       0.048450
     32 H7          -4.5350    -0.4800    -2.4080 hc         1 28I       0.048450
     33 H8          -5.9340    -2.0510     1.3320 hc         1 28I       0.039200
     34 H9          -6.2260    -0.3530     1.0100 hc         1 28I       0.039200
     35 H10          0.7980    -3.7830     1.1020 hn         1 28I       0.515500
     36 H11          2.4660    -3.3180     1.0010 hn         1 28I       0.515500
     37 H12          3.4700     1.0690    -0.2340 hn         1 28I       0.351500
     38 H13          6.6030     2.0790     0.2250 hn         1 28I       0.457000
     39 H14          5.0370     2.2130     0.8650 hn         1 28I       0.457000
     40 H15          1.1570     3.0560    -0.8640 ha         1 28I       0.144000
     41 H16         -3.1480    -2.5440     1.0230 h1         1 28I       0.049450
     42 H17         -2.2710    -1.5070     2.1470 h1         1 28I       0.049450
     43 H18         -4.0610     0.3120     1.6310 hc         1 28I       0.048450
     44 H19         -4.4130    -0.9920     2.7430 hc         1 28I       0.048450
     45 H20         -6.2690    -1.3350    -1.1160 hc         1 28I       0.039200
     46 H21         -4.9730    -2.4610    -0.7730 hc         1 28I       0.039200
@<TRIPOS>BOND
     1     1     2 ar  
     2     1    17 ar  
     3     1    22 1   
     4     2    18 ar  
     5     2    19 1   
     6     3     4 2   
     7     3    26 1   
     8     4    14 1   
     9     4    15 1   
    10     5    20 2   
    11     5    21 1   
    12     5    27 1   
    13     6    19 2   
    14     6    21 1   
    15     6    28 1   
    16     7     8 1   
    17     7    22 1   
    18     7    29 1   
    19     7    30 1   
    20     8    25 1   
    21     8    31 1   
    22     8    32 1   
    23     9    24 1   
    24     9    25 1   
    25     9    33 1   
    26     9    34 1   
    27    10    11 1   
    28    10    35 1   
    29    10    36 1   
    30    11    16 ar  
    31    11    17 ar  
    32    12    13 2   
    33    13    14 1   
    34    13    16 1   
    35    14    37 1   
    36    15    38 1   
    37    15    39 1   
    38    16    18 ar  
    39    19    20 1   
    40    20    40 1   
    41    22    23 1   
    42    23    24 1   
    43    23    41 1   
    44    23    42 1   
    45    24    43 1   
    46    24    44 1   
    47    25    45 1   
    48    25    46 1   
@<TRIPOS>SUBSTRUCTURE
     1 28I         1 TEMP              0 ****  ****    0 ROOT
