@<TRIPOS>MOLECULE
28K
   20    20     1     0     0
SMALL
No Charge or Current Charge


@<TRIPOS>ATOM
      1 CAH          2.2250    -0.6480     0.2150 c3         1 28K       0.190300
      2 CBP          1.8470    -1.7850     1.1880 c3         1 28K      -0.123100
      3 CAG          1.1130     0.4130     0.0550 cx         1 28K       0.161200
      4 OBO          1.1720     1.5580     0.9410 op         1 28K      -0.452000
      5 CBN          1.5160     1.7730    -0.4460 cx         1 28K       0.069600
      6 CAF         -0.2500    -0.0940    -0.3100 c2         1 28K      -0.274200
      7 CAE         -1.4190     0.5210     0.0180 ce         1 28K      -0.229200
      8 CAD         -2.7870     0.0370    -0.3500 c          1 28K       0.697200
      9 OBM         -2.8960    -0.9920    -0.9980 o          1 28K      -0.728000
     10 H40          3.1060    -0.1440     0.6360 h1         1 28K       0.015700
     11 H41          1.0050    -2.3740     0.8070 hc         1 28K       0.043033
     12 H42          2.6970    -2.4600     1.3450 hc         1 28K       0.043033
     13 H43          1.5620    -1.3710     2.1630 hc         1 28K       0.043033
     14 H44          2.5690     1.9780    -0.6390 h1         1 28K       0.065700
     15 H45          0.7990     2.3610    -1.0190 h1         1 28K       0.065700
     16 H46         -0.2570    -1.0150    -0.8970 ha         1 28K       0.205000
     17 H47         -1.4120     1.4430     0.5950 ha         1 28K       0.153000
     18 OXT         -3.7400     0.7030     0.0210 o          1 28K      -0.728000
     19 O1           2.5830    -1.2260    -1.0500 oh         1 28K      -0.707000
     20 H1           3.3310    -1.8420    -0.8810 ho         1 28K       0.489000
@<TRIPOS>BOND
     1     1     2 1   
     2     1     3 1   
     3     1    10 1   
     4     1    19 1   
     5     2    11 1   
     6     2    12 1   
     7     2    13 1   
     8     3     4 1   
     9     3     5 1   
    10     3     6 1   
    11     4     5 1   
    12     5    14 1   
    13     5    15 1   
    14     6     7 2   
    15     6    16 1   
    16     7     8 1   
    17     7    17 1   
    18     8     9 1   
    19     8    18 1   
    20    19    20 1   
@<TRIPOS>SUBSTRUCTURE
     1 28K         1 TEMP              0 ****  ****    0 ROOT
