@<TRIPOS>MOLECULE
28K
   20    20     1     0     0
SMALL
bcc


@<TRIPOS>ATOM
      1 CAH          2.1940    -0.6430     0.1840 c3         1 28K       0.167100
      2 CBP          1.7810    -1.6220     1.2700 c3         1 28K      -0.123100
      3 CAG          1.1480     0.4380    -0.0220 cx         1 28K       0.138000
      4 OBO          1.1940     1.4790     0.9310 op         1 28K      -0.405600
      5 CBN          1.6000     1.7820    -0.3950 cx         1 28K       0.046400
      6 CAF         -0.1970    -0.0270    -0.4390 c2         1 28K      -0.224200
      7 CAE         -1.3470     0.3970     0.0760 ce         1 28K      -0.179200
      8 CAD         -2.6960    -0.1010    -0.3930 c          1 28K       0.907800
      9 OBM         -2.7190    -0.9540    -1.3030 o          1 28K      -0.833300
     10 H40          3.1250    -0.1500     0.5000 h1         1 28K       0.015700
     11 H41          0.8480    -2.1290     1.0220 hc         1 28K       0.043033
     12 H42          2.5520    -2.3810     1.4210 hc         1 28K       0.043033
     13 H43          1.6440    -1.1050     2.2210 hc         1 28K       0.043033
     14 H44          2.6620     1.9750    -0.5340 h1         1 28K       0.065700
     15 H45          0.9340     2.4290    -0.9580 h1         1 28K       0.065700
     16 H46         -0.2120    -0.7730    -1.2260 ha         1 28K       0.155000
     17 H47         -1.3460     1.1350     0.8720 ha         1 28K       0.103000
     18 OXT         -3.6830     0.3970     0.1880 o          1 28K      -0.833300
     19 O1           2.3640    -1.2660    -1.0710 oh         1 28K      -0.584800
     20 H1           2.9180    -2.0440    -0.9510 ho         1 28K       0.390000
@<TRIPOS>BOND
     1     1     2 1   
     2     1     3 1   
     3     1    10 1   
     4     1    19 1   
     5     2    11 1   
     6     2    12 1   
     7     2    13 1   
     8     3     4 1   
     9     3     5 1   
    10     3     6 1   
    11     4     5 1   
    12     5    14 1   
    13     5    15 1   
    14     6     7 2   
    15     6    16 1   
    16     7     8 1   
    17     7    17 1   
    18     8     9 1   
    19     8    18 1   
    20    19    20 1   
@<TRIPOS>SUBSTRUCTURE
     1 28K         1 TEMP              0 ****  ****    0 ROOT
