@<TRIPOS>MOLECULE
28L
   65    68     1     0     0
SMALL
bcc


@<TRIPOS>ATOM
      1 C1          -7.3340     0.9710     1.8170 c3         1 28L      -0.272300
      2 S2          -7.6130     1.1540     0.0720 s6         1 28L       1.216900
      3 N3          -6.7320    -0.0540    -0.6640 nu         1 28L      -0.674500
      4 C4          -5.3210    -0.0770    -0.5390 ca         1 28L       0.097600
      5 C5          -4.7050    -1.0620     0.2250 ca         1 28L      -0.130000
      6 C6          -3.3250    -1.1140     0.3150 ca         1 28L      -0.106000
      7 C7          -4.5400     0.8600    -1.2080 ca         1 28L      -0.130000
      8 C8          -3.1610     0.8120    -1.0990 ca         1 28L      -0.106000
      9 C9          -2.5280    -0.1760    -0.3430 cp         1 28L      -0.024000
     10 C10         -1.0610    -0.2360    -0.2460 cp         1 28L      -0.167300
     11 C11         -0.2870     0.9530    -0.2300 ca         1 28L       0.438200
     12 N12          1.0130     0.9780    -0.1840 nb         1 28L      -0.653000
     13 C13         -0.3820    -1.4270    -0.1770 ca         1 28L      -0.062000
     14 C14          1.0260    -1.4400    -0.0790 ca         1 28L      -0.171300
     15 C15          1.6870    -0.1920    -0.1180 ca         1 28L       0.433600
     16 C16          3.0990    -0.1680    -0.1270 ca         1 28L      -0.090100
     17 C17          3.8120     1.1210    -0.1660 ce         1 28L      -0.115400
     18 C18          4.6050     1.4730    -1.1790 c2         1 28L      -0.127200
     19 C19          5.3300     2.7660    -1.1980 c6         1 28L      -0.138500
     20 C20          4.9740     3.6240    -0.0330 c2         1 28L       0.692600
     21 O21          5.5030     4.8240    -0.1020 os         1 28L      -0.405400
     22 C22          5.2440     5.7440     0.9600 c3         1 28L       0.134700
     23 N23          4.2440     3.2840     0.9600 ne         1 28L      -0.762100
     24 C24          3.6920     2.0150     1.0100 c          1 28L       0.730700
     25 O25          3.1330     1.6470     2.0230 o          1 28L      -0.499100
     26 C26          3.7800    -1.3570    -0.1400 ca         1 28L      -0.095000
     27 C27          3.1610    -2.6310    -0.0810 ca         1 28L      -0.070300
     28 C28          4.0150    -3.9040    -0.1350 c3         1 28L       0.012300
     29 C29          3.6430    -4.7260    -1.3790 c3         1 28L      -0.085433
     30 C30          5.5090    -3.5770    -0.2440 c3         1 28L      -0.085433
     31 C31          3.8380    -4.7590     1.1280 c3         1 28L      -0.085433
     32 C32          1.7810    -2.6440    -0.0020 ca         1 28L       0.130100
     33 O33          1.0910    -3.8120     0.1080 os         1 28L      -0.341900
     34 C34          0.5160    -4.0580     1.3880 c3         1 28L       0.124700
     35 O35         -9.0040     0.8520    -0.2200 o          1 28L      -0.594800
     36 O36         -7.0500     2.4260    -0.3470 o          1 28L      -0.594800
     37 H1          -7.6850    -0.0080     2.1360 h1         1 28L       0.103700
     38 H2          -6.2730     1.0820     2.0280 h1         1 28L       0.103700
     39 H3          -7.8940     1.7530     2.3280 h1         1 28L       0.103700
     40 H4          -7.1730    -0.9580    -0.5300 hn         1 28L       0.430800
     41 H5          -5.3060    -1.7900     0.7550 ha         1 28L       0.148000
     42 H6          -2.8690    -1.8800     0.9290 ha         1 28L       0.139500
     43 H7          -5.0030     1.6100    -1.8330 ha         1 28L       0.148000
     44 H8          -2.5720     1.5380    -1.6450 ha         1 28L       0.139500
     45 H9          -0.7890     1.9160    -0.2560 h4         1 28L       0.024100
     46 H10         -0.9290    -2.3580    -0.2450 ha         1 28L       0.147000
     47 H11          4.7360     0.8180    -2.0310 ha         1 28L       0.142000
     48 H12          6.4130     2.5950    -1.2030 hc         1 28L       0.092200
     49 H13          5.1220     3.3050    -2.1270 hc         1 28L       0.092200
     50 H14          5.7620     6.6580     0.6880 h1         1 28L       0.055367
     51 H15          4.1770     5.9400     1.0600 h1         1 28L       0.055367
     52 H16          5.6290     5.3680     1.9070 h1         1 28L       0.055367
     53 H17          4.8590    -1.3000    -0.1660 ha         1 28L       0.138000
     54 H18          4.2970    -5.5980    -1.4520 hc         1 28L       0.037367
     55 H19          2.6160    -5.0840    -1.3480 hc         1 28L       0.037367
     56 H20          3.7720    -4.1380    -2.2890 hc         1 28L       0.037367
     57 H21          6.0710    -4.5110    -0.2850 hc         1 28L       0.037367
     58 H22          5.7520    -3.0160    -1.1480 hc         1 28L       0.037367
     59 H23          5.8800    -3.0170     0.6170 hc         1 28L       0.037367
     60 H24          3.9860    -4.1670     2.0330 hc         1 28L       0.037367
     61 H25          2.8600    -5.2300     1.1830 hc         1 28L       0.037367
     62 H26          4.5780    -5.5620     1.1340 hc         1 28L       0.037367
     63 H27          0.0890    -5.0580     1.3560 h1         1 28L       0.038367
     64 H28          1.2670    -4.0170     2.1790 h1         1 28L       0.038367
     65 H29         -0.2760    -3.3450     1.6290 h1         1 28L       0.038367
@<TRIPOS>BOND
     1     1     2 1   
     2     1    37 1   
     3     1    38 1   
     4     1    39 1   
     5     2     3 1   
     6     2    35 2   
     7     2    36 2   
     8     3     4 1   
     9     3    40 1   
    10     4     5 ar  
    11     4     7 ar  
    12     5     6 ar  
    13     5    41 1   
    14     6     9 ar  
    15     6    42 1   
    16     7     8 ar  
    17     7    43 1   
    18     8     9 ar  
    19     8    44 1   
    20     9    10 1   
    21    10    11 ar  
    22    10    13 ar  
    23    11    12 ar  
    24    11    45 1   
    25    12    15 ar  
    26    13    14 ar  
    27    13    46 1   
    28    14    15 ar  
    29    14    32 ar  
    30    15    16 ar  
    31    16    17 1   
    32    16    26 ar  
    33    17    18 2   
    34    17    24 1   
    35    18    19 1   
    36    18    47 1   
    37    19    20 1   
    38    19    48 1   
    39    19    49 1   
    40    20    21 1   
    41    20    23 2   
    42    21    22 1   
    43    22    50 1   
    44    22    51 1   
    45    22    52 1   
    46    23    24 1   
    47    24    25 2   
    48    26    27 ar  
    49    26    53 1   
    50    27    28 1   
    51    27    32 ar  
    52    28    29 1   
    53    28    30 1   
    54    28    31 1   
    55    29    54 1   
    56    29    55 1   
    57    29    56 1   
    58    30    57 1   
    59    30    58 1   
    60    30    59 1   
    61    31    60 1   
    62    31    61 1   
    63    31    62 1   
    64    32    33 1   
    65    33    34 1   
    66    34    63 1   
    67    34    64 1   
    68    34    65 1   
@<TRIPOS>SUBSTRUCTURE
     1 28L         1 TEMP              0 ****  ****    0 ROOT
