@<TRIPOS>MOLECULE
28L
   65    68     1     0     0
SMALL
No Charge or Current Charge


@<TRIPOS>ATOM
      1 C1          -7.5560     2.0730     0.8850 c3         1 28L      -0.383100
      2 S2          -7.9820     0.8140    -0.3010 s6         1 28L       1.186100
      3 N3          -6.8590    -0.3900    -0.0700 nu         1 28L      -0.868100
      4 C4          -5.4640    -0.3340    -0.0870 ca         1 28L       0.236000
      5 C5          -4.7470    -1.3510     0.5650 ca         1 28L      -0.112000
      6 C6          -3.3420    -1.3460     0.5790 ca         1 28L      -0.088000
      7 C7          -4.7460     0.6890    -0.7380 ca         1 28L      -0.112000
      8 C8          -3.3400     0.6970    -0.7240 ca         1 28L      -0.088000
      9 C9          -2.6070    -0.3200    -0.0650 cp         1 28L      -0.024000
     10 C10         -1.1090    -0.3110    -0.0490 cp         1 28L      -0.102000
     11 C11         -0.3750     0.8960    -0.0360 ca         1 28L       0.372900
     12 N12          0.9730     0.9560    -0.0420 nb         1 28L      -0.653000
     13 C13         -0.3590    -1.5090    -0.0550 ca         1 28L      -0.044000
     14 C14          1.0550    -1.4650    -0.0310 ca         1 28L      -0.106000
     15 C15          1.6870    -0.1980    -0.0450 ca         1 28L       0.303000
     16 C16          3.0960    -0.1500    -0.0870 ca         1 28L      -0.024800
     17 C17          3.8200     1.1560    -0.0930 ce         1 28L      -0.115400
     18 C18          4.4540     1.5820    -1.2040 c2         1 28L      -0.177200
     19 C19          5.1910     2.9000    -1.2040 c6         1 28L      -0.138500
     20 C20          5.0620     3.6600     0.1030 c2         1 28L       0.692600
     21 O21          5.6780     4.8840     0.0630 os         1 28L      -0.428600
     22 C22          5.6490     5.7360     1.2250 c3         1 28L       0.157900
     23 N23          4.4460     3.2160     1.1570 ne         1 28L      -0.762100
     24 C24          3.8220     1.9640     1.1830 c          1 28L       0.730700
     25 O25          3.3160     1.5410     2.2110 o          1 28L      -0.499100
     26 C26          3.8510    -1.3290    -0.1660 ca         1 28L      -0.077000
     27 C27          3.2500    -2.6120    -0.1550 ca         1 28L      -0.070300
     28 C28          4.1290    -3.9050    -0.3000 c3         1 28L       0.012300
     29 C29          3.6830    -4.7110    -1.5540 c3         1 28L      -0.085433
     30 C30          5.6430    -3.5910    -0.4950 c3         1 28L      -0.085433
     31 C31          4.0230    -4.8000     0.9660 c3         1 28L      -0.085433
     32 C32          1.8280    -2.6570    -0.0280 ca         1 28L       0.130100
     33 O33          1.1840    -3.8700     0.0930 os         1 28L      -0.365100
     34 C34          0.5980    -4.2450     1.3580 c3         1 28L       0.147900
     35 O35         -9.2600     0.2160     0.0850 o          1 28L      -0.524000
     36 O36         -7.7790     1.3270    -1.6570 o          1 28L      -0.524000
     37 H1          -7.5950     1.6180     1.8790 h1         1 28L       0.103700
     38 H2          -6.5490     2.4300     0.6490 h1         1 28L       0.103700
     39 H3          -8.2940     2.8760     0.7870 h1         1 28L       0.103700
     40 H4          -7.3070    -1.0840     0.5120 hn         1 28L       0.486000
     41 H5          -5.2810    -2.1510     1.0700 ha         1 28L       0.130000
     42 H6          -2.8210    -2.1400     1.1090 ha         1 28L       0.121500
     43 H7          -5.2630     1.4830    -1.2680 ha         1 28L       0.130000
     44 H8          -2.8170     1.4940    -1.2460 ha         1 28L       0.121500
     45 H9          -0.8880     1.8570    -0.0200 h4         1 28L       0.024100
     46 H10         -0.8830    -2.4570    -0.1180 ha         1 28L       0.129000
     47 H11          4.4530     0.9970    -2.1270 ha         1 28L       0.192000
     48 H12          6.2560     2.7300    -1.4070 hc         1 28L       0.092200
     49 H13          4.8140     3.5340    -2.0170 hc         1 28L       0.092200
     50 H14          6.1840     6.6720     1.0260 h1         1 28L       0.055367
     51 H15          4.6170     5.9880     1.5020 h1         1 28L       0.055367
     52 H16          6.1300     5.2470     2.0830 h1         1 28L       0.055367
     53 H17          4.9270    -1.2060    -0.2310 ha         1 28L       0.120000
     54 H18          4.3410    -5.5730    -1.7200 hc         1 28L       0.037367
     55 H19          2.6650    -5.1000    -1.4600 hc         1 28L       0.037367
     56 H20          3.7220    -4.0800    -2.4510 hc         1 28L       0.037367
     57 H21          6.2240    -4.5130    -0.6270 hc         1 28L       0.037367
     58 H22          5.8110    -2.9750    -1.3880 hc         1 28L       0.037367
     59 H23          6.0580    -3.0710     0.3770 hc         1 28L       0.037367
     60 H24          4.1470    -4.2010     1.8760 hc         1 28L       0.037367
     61 H25          3.0640    -5.3230     1.0200 hc         1 28L       0.037367
     62 H26          4.7970    -5.5770     0.9650 hc         1 28L       0.037367
     63 H27          0.1590    -5.2480     1.2900 h1         1 28L       0.038367
     64 H28          1.3580    -4.2570     2.1490 h1         1 28L       0.038367
     65 H29         -0.1900    -3.5480     1.6650 h1         1 28L       0.038367
@<TRIPOS>BOND
     1     1     2 1   
     2     1    37 1   
     3     1    38 1   
     4     1    39 1   
     5     2     3 1   
     6     2    35 2   
     7     2    36 2   
     8     3     4 1   
     9     3    40 1   
    10     4     5 ar  
    11     4     7 ar  
    12     5     6 ar  
    13     5    41 1   
    14     6     9 ar  
    15     6    42 1   
    16     7     8 ar  
    17     7    43 1   
    18     8     9 ar  
    19     8    44 1   
    20     9    10 1   
    21    10    11 ar  
    22    10    13 ar  
    23    11    12 ar  
    24    11    45 1   
    25    12    15 ar  
    26    13    14 ar  
    27    13    46 1   
    28    14    15 ar  
    29    14    32 ar  
    30    15    16 ar  
    31    16    17 1   
    32    16    26 ar  
    33    17    18 2   
    34    17    24 1   
    35    18    19 1   
    36    18    47 1   
    37    19    20 1   
    38    19    48 1   
    39    19    49 1   
    40    20    21 1   
    41    20    23 2   
    42    21    22 1   
    43    22    50 1   
    44    22    51 1   
    45    22    52 1   
    46    23    24 1   
    47    24    25 2   
    48    26    27 ar  
    49    26    53 1   
    50    27    28 1   
    51    27    32 ar  
    52    28    29 1   
    53    28    30 1   
    54    28    31 1   
    55    29    54 1   
    56    29    55 1   
    57    29    56 1   
    58    30    57 1   
    59    30    58 1   
    60    30    59 1   
    61    31    60 1   
    62    31    61 1   
    63    31    62 1   
    64    32    33 1   
    65    33    34 1   
    66    34    63 1   
    67    34    64 1   
    68    34    65 1   
@<TRIPOS>SUBSTRUCTURE
     1 28L         1 TEMP              0 ****  ****    0 ROOT
