@<TRIPOS>MOLECULE
28M
   66    69     1     0     0
SMALL
No Charge or Current Charge


@<TRIPOS>ATOM
      1 C1           3.7190    -0.1990    -0.0010 ca         1 28M       0.001200
      2 C2           4.2320     1.0810     0.2620 ca         1 28M      -0.083000
      3 C3           3.3960     2.2170     0.3970 ca         1 28M      -0.053300
      4 C4           1.9950     2.0120     0.2270 ca         1 28M       0.101100
      5 C5           1.4620     0.7080     0.0340 ca         1 28M      -0.051000
      6 C6           2.3270    -0.4100    -0.1000 ca         1 28M       0.245000
      7 N7           1.8450    -1.6640    -0.3010 nb         1 28M      -0.640000
      8 C8           0.5040    -1.8470    -0.3590 ca         1 28M       0.310900
      9 C9          -0.4480    -0.8060    -0.2020 ca         1 28M       0.272000
     10 C10          0.0610     0.4900     0.0030 ca         1 28M      -0.165000
     11 N11         -1.8580    -1.0410    -0.2450 nh         1 28M      -0.815400
     12 C12         -2.4630    -2.3330    -0.6650 c5         1 28M       0.220800
     13 C13         -3.9390    -1.9250    -0.8950 c5         1 28M      -0.089400
     14 C14         -4.1590    -0.9170     0.2680 c5         1 28M      -0.079700
     15 C15         -2.8900    -0.0360     0.1290 c5         1 28M       0.218800
     16 C16         -5.4790    -0.1190     0.2180 c3         1 28M       0.211800
     17 N17         -6.6420    -1.0060     0.3910 n7         1 28M      -0.874300
     18 S18         -8.1710    -0.3500     0.3390 s6         1 28M       1.195100
     19 O19         -9.0920    -1.4530     0.6110 o          1 28M      -0.525500
     20 O20         -8.1540     0.8310     1.2050 o          1 28M      -0.525500
     21 C21         -8.3220     0.1580    -1.3630 c3         1 28M      -0.387100
     22 O22          1.1160     3.1130     0.2430 os         1 28M      -0.364100
     23 C23          0.3640     3.6030    -0.9320 c3         1 28M       0.146900
     24 C24          4.0120     3.6240     0.7270 c3         1 28M       0.012300
     25 C25          3.7610     4.6240    -0.4350 c3         1 28M      -0.085433
     26 C26          3.4020     4.1790     2.0460 c3         1 28M      -0.085433
     27 C27          5.5550     3.5760     0.9450 c3         1 28M      -0.085433
     28 C28          4.6650    -1.3080    -0.1410 cc         1 28M      -0.152400
     29 C29          4.9870    -1.9070    -1.4560 c          1 28M       0.555200
     30 O30          4.5260    -1.5320    -2.5250 o          1 28M      -0.564000
     31 N31          5.8870    -2.9410    -1.3910 ns         1 28M      -0.364100
     32 C33          6.4800    -3.4220    -0.2340 cc         1 28M      -0.036400
     33 C34          6.1740    -2.8490     0.9840 cd         1 28M      -0.295000
     34 C35          5.2350    -1.7550     1.0400 cd         1 28M      -0.057000
     35 H1           5.3090     1.1570     0.3480 ha         1 28M       0.127000
     36 H2           0.1830    -2.8750    -0.5190 h4         1 28M       0.015100
     37 H3          -0.6270     1.3100     0.1610 ha         1 28M       0.126000
     38 H4          -2.0110    -2.7340    -1.5840 h1         1 28M       0.045700
     39 H5          -2.3740    -3.0880     0.1290 h1         1 28M       0.045700
     40 H6          -4.0700    -1.4490    -1.8740 hc         1 28M       0.050700
     41 H7          -4.6130    -2.7880    -0.8530 hc         1 28M       0.050700
     42 H8          -4.1430    -1.4380     1.2340 hc         1 28M       0.087700
     43 H9          -2.6570     0.4760     1.0740 h1         1 28M       0.046700
     44 H10         -3.0060     0.7190    -0.6610 h1         1 28M       0.046700
     45 H11         -5.4530     0.6340     1.0180 h1         1 28M       0.053700
     46 H12         -5.5260     0.4190    -0.7390 h1         1 28M       0.053700
     47 H13         -6.6810    -1.6450    -0.4000 hn         1 28M       0.480000
     48 H14         -8.1750    -0.7220    -1.9980 h1         1 28M       0.101367
     49 H15         -9.3300     0.5650    -1.4880 h1         1 28M       0.101367
     50 H16         -7.5680     0.9270    -1.5590 h1         1 28M       0.101367
     51 H17          1.0510     3.9020    -1.7320 h1         1 28M       0.035367
     52 H18         -0.3030     2.8340    -1.3370 h1         1 28M       0.035367
     53 H19         -0.2440     4.4740    -0.6590 h1         1 28M       0.035367
     54 H20          4.0420     4.1800    -1.3970 hc         1 28M       0.036811
     55 H21          2.7150     4.9360    -0.4910 hc         1 28M       0.036811
     56 H22          4.3500     5.5390    -0.3010 hc         1 28M       0.036811
     57 H23          3.8900     5.1170     2.3400 hc         1 28M       0.036811
     58 H24          2.3330     4.3920     1.9570 hc         1 28M       0.036811
     59 H25          3.5350     3.4600     2.8640 hc         1 28M       0.036811
     60 H26          5.8200     2.8960     1.7630 hc         1 28M       0.036811
     61 H27          6.0760     3.2560     0.0340 hc         1 28M       0.036811
     62 H28          5.9470     4.5670     1.2080 hc         1 28M       0.036811
     63 H29          6.1180    -3.3610    -2.2830 hn         1 28M       0.323500
     64 H30          7.1680    -4.2480    -0.4010 h4         1 28M       0.197000
     65 H31          6.6370    -3.2230     1.8950 ha         1 28M       0.200000
     66 H32          4.9780    -1.2960     1.9920 ha         1 28M       0.195000
@<TRIPOS>BOND
     1     1     2 ar  
     2     1     6 ar  
     3     1    28 1   
     4     2     3 ar  
     5     2    35 1   
     6     3     4 ar  
     7     3    24 1   
     8     4     5 ar  
     9     4    22 1   
    10     5     6 ar  
    11     5    10 ar  
    12     6     7 ar  
    13     7     8 ar  
    14     8     9 ar  
    15     8    36 1   
    16     9    10 ar  
    17     9    11 1   
    18    10    37 1   
    19    11    12 1   
    20    11    15 1   
    21    12    13 1   
    22    12    38 1   
    23    12    39 1   
    24    13    14 1   
    25    13    40 1   
    26    13    41 1   
    27    14    15 1   
    28    14    16 1   
    29    14    42 1   
    30    15    43 1   
    31    15    44 1   
    32    16    17 1   
    33    16    45 1   
    34    16    46 1   
    35    17    18 1   
    36    17    47 1   
    37    18    19 2   
    38    18    20 2   
    39    18    21 1   
    40    21    48 1   
    41    21    49 1   
    42    21    50 1   
    43    22    23 1   
    44    23    51 1   
    45    23    52 1   
    46    23    53 1   
    47    24    25 1   
    48    24    26 1   
    49    24    27 1   
    50    25    54 1   
    51    25    55 1   
    52    25    56 1   
    53    26    57 1   
    54    26    58 1   
    55    26    59 1   
    56    27    60 1   
    57    27    61 1   
    58    27    62 1   
    59    28    29 1   
    60    28    34 2   
    61    29    30 2   
    62    29    31 1   
    63    31    32 1   
    64    31    63 1   
    65    32    33 2   
    66    32    64 1   
    67    33    34 1   
    68    33    65 1   
    69    34    66 1   
@<TRIPOS>SUBSTRUCTURE
     1 28M         1 TEMP              0 ****  ****    0 ROOT
