@<TRIPOS>MOLECULE
28M
   66    69     1     0     0
SMALL
bcc


@<TRIPOS>ATOM
      1 C1           3.6630    -0.1610     0.0000 ca         1 28M      -0.064100
      2 C2           4.1260     1.1170     0.1930 ca         1 28M      -0.101000
      3 C3           3.2930     2.2540     0.3150 ca         1 28M      -0.053300
      4 C4           1.9310     2.0440     0.2070 ca         1 28M       0.101100
      5 C5           1.3910     0.7330     0.0950 ca         1 28M      -0.116300
      6 C6           2.2620    -0.3740    -0.0380 ca         1 28M       0.375600
      7 N7           1.7760    -1.6250    -0.1960 nb         1 28M      -0.640000
      8 C8           0.4930    -1.8310    -0.1720 ca         1 28M       0.376200
      9 C9          -0.4800    -0.8060     0.0340 ca         1 28M       0.068300
     10 C10          0.0030     0.4840     0.1430 ca         1 28M      -0.183000
     11 N11         -1.8020    -1.1190     0.1260 nh         1 28M      -0.677000
     12 C12         -2.3290    -2.4030    -0.3120 c5         1 28M       0.220800
     13 C13         -3.8530    -2.2370    -0.2700 c5         1 28M      -0.089400
     14 C14         -4.1090    -0.8740     0.3870 c5         1 28M      -0.079700
     15 C15         -2.8220    -0.0960     0.1420 c5         1 28M       0.218800
     16 C16         -5.3270    -0.1500    -0.1580 c3         1 28M       0.211800
     17 N17         -6.5390    -0.8810     0.2030 n7         1 28M      -0.819100
     18 S18         -7.9900    -0.1050     0.2370 s6         1 28M       1.225900
     19 O19         -8.9700    -1.0910     0.6660 o          1 28M      -0.596300
     20 O20         -7.8100     1.1090     1.0190 o          1 28M      -0.596300
     21 C21         -8.3720     0.3710    -1.4330 c3         1 28M      -0.276300
     22 O22          1.0480     3.0840     0.2590 os         1 28M      -0.340900
     23 C23          0.4800     3.4420    -0.9960 c3         1 28M       0.123700
     24 C24          3.9070     3.6240     0.6330 c3         1 28M       0.012300
     25 C25          3.5500     4.6870    -0.4170 c3         1 28M      -0.085433
     26 C26          3.4230     4.0770     2.0190 c3         1 28M      -0.085433
     27 C27          5.4380     3.5600     0.6920 c3         1 28M      -0.085433
     28 C28          4.6120    -1.2840    -0.1300 cc         1 28M      -0.152400
     29 C29          5.6260    -1.2070    -1.1630 c          1 28M       0.697700
     30 O30          5.7720    -0.2850    -1.9610 o          1 28M      -0.639500
     31 N31          6.4700    -2.2990    -1.2110 ns         1 28M      -0.431100
     32 C33          6.4130    -3.3790    -0.4020 cc         1 28M       0.013600
     33 C34          5.4650    -3.4550     0.5650 cd         1 28M      -0.245000
     34 C35          4.5560    -2.3790     0.6850 cd         1 28M      -0.007000
     35 H1           5.1950     1.2520     0.2550 ha         1 28M       0.145000
     36 H2           0.1720    -2.8580    -0.3110 h4         1 28M       0.015100
     37 H3          -0.6790     1.3080     0.2970 ha         1 28M       0.144000
     38 H4          -1.9930    -2.6450    -1.3260 h1         1 28M       0.045700
     39 H5          -1.9890    -3.2100     0.3410 h1         1 28M       0.045700
     40 H6          -4.2600    -2.2610    -1.2830 hc         1 28M       0.050700
     41 H7          -4.3240    -3.0460     0.2870 hc         1 28M       0.050700
     42 H8          -4.2410    -1.0020     1.4650 hc         1 28M       0.087700
     43 H9          -2.6420     0.6320     0.9370 h1         1 28M       0.046700
     44 H10         -2.8560     0.4610    -0.8070 h1         1 28M       0.046700
     45 H11         -5.3870     0.8480     0.2760 h1         1 28M       0.053700
     46 H12         -5.2310    -0.0350    -1.2430 h1         1 28M       0.053700
     47 H13         -6.6170    -1.7990    -0.2220 hn         1 28M       0.424800
     48 H14         -8.4270    -0.5190    -2.0550 h1         1 28M       0.101367
     49 H15         -9.3350     0.8810    -1.4270 h1         1 28M       0.101367
     50 H16         -7.6040     1.0450    -1.8070 h1         1 28M       0.101367
     51 H17          1.2520     3.6940    -1.7270 h1         1 28M       0.035367
     52 H18         -0.1400     2.6450    -1.4120 h1         1 28M       0.035367
     53 H19         -0.1440     4.3170    -0.8260 h1         1 28M       0.035367
     54 H20          3.7790     4.3420    -1.4270 hc         1 28M       0.036811
     55 H21          2.5050     4.9810    -0.3820 hc         1 28M       0.036811
     56 H22          4.1390     5.5890    -0.2340 hc         1 28M       0.036811
     57 H23          3.8820     5.0330     2.2810 hc         1 28M       0.036811
     58 H24          2.3420     4.2040     2.0610 hc         1 28M       0.036811
     59 H25          3.7100     3.3520     2.7840 hc         1 28M       0.036811
     60 H26          5.7990     2.8770     1.4630 hc         1 28M       0.036811
     61 H27          5.8820     3.2670    -0.2620 hc         1 28M       0.036811
     62 H28          5.8250     4.5500     0.9360 hc         1 28M       0.036811
     63 H29          7.1850    -2.2740    -1.9250 hn         1 28M       0.323500
     64 H30          7.1520    -4.1450    -0.5800 h4         1 28M       0.147000
     65 H31          5.4130    -4.3120     1.2180 ha         1 28M       0.150000
     66 H32          3.8010    -2.4240     1.4590 ha         1 28M       0.145000
@<TRIPOS>BOND
     1     1     2 ar  
     2     1     6 ar  
     3     1    28 1   
     4     2     3 ar  
     5     2    35 1   
     6     3     4 ar  
     7     3    24 1   
     8     4     5 ar  
     9     4    22 1   
    10     5     6 ar  
    11     5    10 ar  
    12     6     7 ar  
    13     7     8 ar  
    14     8     9 ar  
    15     8    36 1   
    16     9    10 ar  
    17     9    11 1   
    18    10    37 1   
    19    11    12 1   
    20    11    15 1   
    21    12    13 1   
    22    12    38 1   
    23    12    39 1   
    24    13    14 1   
    25    13    40 1   
    26    13    41 1   
    27    14    15 1   
    28    14    16 1   
    29    14    42 1   
    30    15    43 1   
    31    15    44 1   
    32    16    17 1   
    33    16    45 1   
    34    16    46 1   
    35    17    18 1   
    36    17    47 1   
    37    18    19 2   
    38    18    20 2   
    39    18    21 1   
    40    21    48 1   
    41    21    49 1   
    42    21    50 1   
    43    22    23 1   
    44    23    51 1   
    45    23    52 1   
    46    23    53 1   
    47    24    25 1   
    48    24    26 1   
    49    24    27 1   
    50    25    54 1   
    51    25    55 1   
    52    25    56 1   
    53    26    57 1   
    54    26    58 1   
    55    26    59 1   
    56    27    60 1   
    57    27    61 1   
    58    27    62 1   
    59    28    29 1   
    60    28    34 2   
    61    29    30 2   
    62    29    31 1   
    63    31    32 1   
    64    31    63 1   
    65    32    33 2   
    66    32    64 1   
    67    33    34 1   
    68    33    65 1   
    69    34    66 1   
@<TRIPOS>SUBSTRUCTURE
     1 28M         1 TEMP              0 ****  ****    0 ROOT
