@<TRIPOS>MOLECULE
28N
   20    22     1     0     0
SMALL
No Charge or Current Charge


@<TRIPOS>ATOM
      1 C4           0.4700     2.4390     0.2180 ca         1 28N      -0.107000
      2 C5          -0.7280     1.7130     0.1190 ca         1 28N       0.098100
      3 C7          -3.1040     1.7850    -0.4400 c6         1 28N       0.143300
      4 C8          -3.1430     0.2920    -0.2200 cc         1 28N       0.335900
      5 C15          0.5370    -0.3680     0.0150 ca         1 28N      -0.060000
      6 C11         -2.2520    -1.7500     0.1060 c          1 28N       0.666100
      7 O10         -3.6170    -1.8490    -0.0170 os         1 28N      -0.214100
      8 N9          -4.1390    -0.5360    -0.2240 n2         1 28N      -0.281700
      9 N13         -1.9720    -0.3940    -0.0380 n          1 28N      -0.255500
     10 O6          -1.9220     2.4060     0.1310 os         1 28N      -0.324100
     11 C14         -0.7100     0.2970     0.0550 ca         1 28N       0.011600
     12 C2           1.7330     0.3680     0.0970 ca         1 28N      -0.023900
     13 Br1          3.4130    -0.5460     0.0570 br         1 28N      -0.071100
     14 C3           1.7030     1.7670     0.2070 ca         1 28N      -0.067000
     15 H4           0.4410     3.5230     0.2920 ha         1 28N       0.140000
     16 H7          -3.1090     1.9850    -1.5190 h1         1 28N       0.094200
     17 H7A         -3.9960     2.2630    -0.0150 h1         1 28N       0.094200
     18 H15          0.5990    -1.4470    -0.0790 ha         1 28N       0.163000
     19 H3           2.6320     2.3300     0.2750 ha         1 28N       0.140000
     20 O12         -1.4750    -2.6710     0.3130 o          1 28N      -0.479000
@<TRIPOS>BOND
     1     1     2 ar  
     2     1    14 ar  
     3     1    15 1   
     4     2    10 1   
     5     2    11 ar  
     6     3     4 1   
     7     3    10 1   
     8     3    16 1   
     9     3    17 1   
    10     4     8 2   
    11     4     9 1   
    12     5    11 ar  
    13     5    12 ar  
    14     5    18 1   
    15     6     7 1   
    16     6     9 1   
    17     6    20 2   
    18     7     8 1   
    19     9    11 1   
    20    12    13 1   
    21    12    14 ar  
    22    14    19 1   
@<TRIPOS>SUBSTRUCTURE
     1 28N         1 TEMP              0 ****  ****    0 ROOT
