@<TRIPOS>MOLECULE
28O
   38    39     1     0     0
SMALL
No Charge or Current Charge


@<TRIPOS>ATOM
      1 C1           0.7890     0.5680    -0.0480 ca         1 28O      -0.074800
      2 C2           0.3060     1.8680     0.1520 ca         1 28O      -0.066000
      3 C3          -1.0720     2.1010     0.2200 ca         1 28O      -0.209000
      4 C4          -1.9960     1.0380     0.0900 ca         1 28O       0.152100
      5 C5          -1.5300    -0.2970    -0.1120 ca         1 28O      -0.095300
      6 C6          -0.1230    -0.4960    -0.1760 ca         1 28O      -0.046000
      7 C7          -2.5170    -1.5080    -0.2600 c3         1 28O       0.017300
      8 C8          -3.4380    -1.3070    -1.4980 c3         1 28O      -0.084100
      9 C9          -1.7840    -2.8680    -0.4710 c3         1 28O      -0.084100
     10 C10         -3.3760    -1.6660     1.0270 c3         1 28O      -0.084100
     11 O11         -3.3540     1.2900     0.1590 os         1 28O      -0.343100
     12 C12         -3.9030     2.6050     0.3600 c3         1 28O       0.149900
     13 C13          2.2310     0.3130    -0.1190 cc         1 28O      -0.142400
     14 C14          2.9140    -0.6830     0.7460 c          1 28O       0.553200
     15 O15          2.3600    -1.3700     1.5930 o          1 28O      -0.559000
     16 N16          4.2650    -0.7830     0.5270 ns         1 28O      -0.364100
     17 C18          4.9870    -0.0500    -0.4010 cc         1 28O      -0.036400
     18 C19          4.3420     0.8700    -1.2010 cd         1 28O      -0.293000
     19 C20          2.9190     1.0630    -1.0620 cd         1 28O      -0.093000
     20 H1           0.9990     2.6990     0.2620 ha         1 28O       0.109000
     21 H2          -1.4020     3.1230     0.3770 ha         1 28O       0.114000
     22 H3           0.3020    -1.4810    -0.3310 ha         1 28O       0.128000
     23 H4          -2.8380    -1.1360    -2.4000 hc         1 28O       0.035478
     24 H5          -4.0600    -2.1940    -1.6710 hc         1 28O       0.035478
     25 H6          -4.1200    -0.4600    -1.3800 hc         1 28O       0.035478
     26 H7          -1.1340    -3.1060     0.3790 hc         1 28O       0.035478
     27 H8          -2.5030    -3.6910    -0.5690 hc         1 28O       0.035478
     28 H9          -1.1790    -2.8570    -1.3860 hc         1 28O       0.035478
     29 H10         -4.0570    -0.8250     1.1830 hc         1 28O       0.035478
     30 H11         -3.9950    -2.5700     0.9760 hc         1 28O       0.035478
     31 H12         -2.7330    -1.7490     1.9110 hc         1 28O       0.035478
     32 H13         -3.6070     3.2800    -0.4530 h1         1 28O       0.039033
     33 H14         -4.9990     2.5580     0.3800 h1         1 28O       0.039033
     34 H15         -3.5650     3.0280     1.3140 h1         1 28O       0.039033
     35 H17          4.7420    -1.4580     1.1120 hn         1 28O       0.325500
     36 H16          6.0500    -0.2810    -0.4160 h4         1 28O       0.199000
     37 H18          4.9050     1.4450    -1.9340 ha         1 28O       0.200000
     38 H19          2.3990     1.7800    -1.6940 ha         1 28O       0.188000
@<TRIPOS>BOND
     1     1     2 ar  
     2     1     6 ar  
     3     1    13 1   
     4     2     3 ar  
     5     2    20 1   
     6     3     4 ar  
     7     3    21 1   
     8     4     5 ar  
     9     4    11 1   
    10     5     6 ar  
    11     5     7 1   
    12     6    22 1   
    13     7     8 1   
    14     7     9 1   
    15     7    10 1   
    16     8    23 1   
    17     8    24 1   
    18     8    25 1   
    19     9    26 1   
    20     9    27 1   
    21     9    28 1   
    22    10    29 1   
    23    10    30 1   
    24    10    31 1   
    25    11    12 1   
    26    12    32 1   
    27    12    33 1   
    28    12    34 1   
    29    13    14 1   
    30    13    19 2   
    31    14    15 2   
    32    14    16 1   
    33    16    17 1   
    34    16    35 1   
    35    17    18 2   
    36    17    36 1   
    37    18    19 1   
    38    18    37 1   
    39    19    38 1   
@<TRIPOS>SUBSTRUCTURE
     1 28O         1 TEMP              0 ****  ****    0 ROOT
