@<TRIPOS>MOLECULE
28O
   38    39     1     0     0
SMALL
bcc


@<TRIPOS>ATOM
      1 C1           0.7520     0.5740    -0.0720 ca         1 28O      -0.074800
      2 C2           0.2610     1.8600     0.0990 ca         1 28O      -0.084000
      3 C3          -1.1040     2.0910     0.1640 ca         1 28O      -0.227000
      4 C4          -2.0100     1.0390     0.0650 ca         1 28O       0.152100
      5 C5          -1.5500    -0.2860    -0.1090 ca         1 28O      -0.095300
      6 C6          -0.1750    -0.4690    -0.1690 ca         1 28O      -0.064000
      7 C7          -2.5050    -1.4790    -0.2210 c3         1 28O       0.017300
      8 C8          -3.4250    -1.3270    -1.4420 c3         1 28O      -0.084100
      9 C9          -1.7430    -2.7960    -0.4080 c3         1 28O      -0.084100
     10 C10         -3.3400    -1.6240     1.0610 c3         1 28O      -0.084100
     11 O11         -3.3410     1.2330     0.1300 os         1 28O      -0.319900
     12 C12         -3.8450     2.5390     0.3060 c3         1 28O       0.126700
     13 C13          2.2020     0.3350    -0.1860 cc         1 28O      -0.142400
     14 C14          2.8050    -0.7570     0.5550 c          1 28O       0.695700
     15 O15          2.2090    -1.5430     1.2880 o          1 28O      -0.634500
     16 N16          4.1710    -0.8690     0.3930 ns         1 28O      -0.431100
     17 C18          4.9470    -0.0650    -0.3670 cc         1 28O       0.013600
     18 C19          4.3920     0.9610    -1.0570 cd         1 28O      -0.243000
     19 C20          2.9950     1.1440    -0.9540 cd         1 28O      -0.043000
     20 H1           0.9410     2.6970     0.1990 ha         1 28O       0.127000
     21 H2          -1.4480     3.1070     0.3070 ha         1 28O       0.132000
     22 H3           0.2090    -1.4660    -0.3140 ha         1 28O       0.146000
     23 H4          -2.8400    -1.2580    -2.3620 hc         1 28O       0.035478
     24 H5          -4.0720    -2.2030    -1.5280 hc         1 28O       0.035478
     25 H6          -4.0660    -0.4510    -1.3810 hc         1 28O       0.035478
     26 H7          -1.0780    -3.0160     0.4290 hc         1 28O       0.035478
     27 H8          -2.4590    -3.6160    -0.4780 hc         1 28O       0.035478
     28 H9          -1.1510    -2.8050    -1.3250 hc         1 28O       0.035478
     29 H10         -3.9990    -0.7760     1.2360 hc         1 28O       0.035478
     30 H11         -3.9660    -2.5170     0.9950 hc         1 28O       0.035478
     31 H12         -2.6950    -1.7360     1.9350 hc         1 28O       0.035478
     32 H13         -3.5730     3.2000    -0.5220 h1         1 28O       0.039033
     33 H14         -4.9280     2.4480     0.3380 h1         1 28O       0.039033
     34 H15         -3.5030     2.9900     1.2420 h1         1 28O       0.039033
     35 H17          4.6160    -1.6210     0.9030 hn         1 28O       0.325500
     36 H16          6.0020    -0.2980    -0.3800 h4         1 28O       0.149000
     37 H18          5.0020     1.6050    -1.6720 ha         1 28O       0.150000
     38 H19          2.5360     1.9500    -1.5140 ha         1 28O       0.138000
@<TRIPOS>BOND
     1     1     2 ar  
     2     1     6 ar  
     3     1    13 1   
     4     2     3 ar  
     5     2    20 1   
     6     3     4 ar  
     7     3    21 1   
     8     4     5 ar  
     9     4    11 1   
    10     5     6 ar  
    11     5     7 1   
    12     6    22 1   
    13     7     8 1   
    14     7     9 1   
    15     7    10 1   
    16     8    23 1   
    17     8    24 1   
    18     8    25 1   
    19     9    26 1   
    20     9    27 1   
    21     9    28 1   
    22    10    29 1   
    23    10    30 1   
    24    10    31 1   
    25    11    12 1   
    26    12    32 1   
    27    12    33 1   
    28    12    34 1   
    29    13    14 1   
    30    13    19 2   
    31    14    15 2   
    32    14    16 1   
    33    16    17 1   
    34    16    35 1   
    35    17    18 2   
    36    17    36 1   
    37    18    19 1   
    38    18    37 1   
    39    19    38 1   
@<TRIPOS>SUBSTRUCTURE
     1 28O         1 TEMP              0 ****  ****    0 ROOT
