@<TRIPOS>MOLECULE
28P
   48    49     1     0     0
SMALL
abcg2


@<TRIPOS>ATOM
      1 CAQ         -6.6510    -0.1370     0.9540 ca         1 28P      -0.104500
      2 CAR         -7.1250    -1.1890     1.7270 ca         1 28P      -0.109500
      3 CAS         -7.0430    -2.4930     1.2560 ca         1 28P      -0.114000
      4 CAT         -6.4890    -2.7340     0.0050 ca         1 28P      -0.109500
      5 CAU         -6.0160    -1.6790    -0.7640 ca         1 28P      -0.104500
      6 CAP         -6.0880    -0.3680    -0.2990 ca         1 28P      -0.071300
      7 CAO         -5.5260     0.7700    -1.1150 c3         1 28P       0.024200
      8 CAN         -4.0630     0.9870    -0.8170 ca         1 28P      -0.127300
      9 CAV         -3.0730     0.3580    -1.5590 ca         1 28P      -0.067500
     10 CAW         -1.7230     0.5070    -1.2580 ca         1 28P      -0.174000
     11 CAM         -3.6600     1.7930     0.2480 ca         1 28P      -0.067500
     12 CAL         -2.3250     1.9550     0.5640 ca         1 28P      -0.174000
     13 CAK         -1.3400     1.3080    -0.1860 ca         1 28P       0.158100
     14 OAJ         -0.0640     1.5200     0.1940 os         1 28P      -0.347100
     15 CAI          0.9770     0.8280    -0.4740 c3         1 28P       0.161600
     16 CAH          2.2830     1.1850     0.2050 c3         1 28P      -0.085400
     17 CAG          3.4550     0.4700    -0.4570 c3         1 28P       0.172800
     18 N1           4.7030     0.6260     0.2690 n3         1 28P      -0.721600
     19 CAX          5.1970     1.9850     0.1890 c3         1 28P       0.156100
     20 CAB          5.6970    -0.3330    -0.1980 c3         1 28P       0.177800
     21 CAC          6.8900    -0.4700     0.7340 c3         1 28P      -0.209400
     22 CAD          7.8650    -1.6050     0.3660 c          1 28P       0.718000
     23 OAF          7.5580    -2.3530    -0.5830 o          1 28P      -0.741000
     24 OAE          8.8950    -1.6860     1.0670 o          1 28P      -0.741000
     25 HAQ         -6.7240     0.8770     1.3300 ha         1 28P       0.109000
     26 HAR         -7.5610    -0.9880     2.6970 ha         1 28P       0.108500
     27 HAS         -7.4120    -3.3140     1.8570 ha         1 28P       0.108000
     28 HAT         -6.4250    -3.7460    -0.3740 ha         1 28P       0.108500
     29 HAU         -5.5890    -1.8800    -1.7390 ha         1 28P       0.109000
     30 HAO         -5.6580     0.5600    -2.1780 hc         1 28P       0.048200
     31 HAOA        -6.0850     1.6840    -0.9020 hc         1 28P       0.048200
     32 HAV         -3.3480    -0.2670    -2.4010 ha         1 28P       0.104500
     33 HAW         -0.9930    -0.0050    -1.8700 ha         1 28P       0.123000
     34 HAM         -4.4040     2.3060     0.8460 ha         1 28P       0.104500
     35 HAL         -2.0330     2.5850     1.3960 ha         1 28P       0.123000
     36 HAI          0.8070    -0.2540    -0.4270 h1         1 28P       0.032700
     37 HAIA         1.0070     1.1090    -1.5340 h1         1 28P       0.032700
     38 HAH          2.4150     2.2690     0.1690 hc         1 28P       0.058200
     39 HAHA         2.2410     0.8960     1.2580 hc         1 28P       0.058200
     40 HAG          3.2280    -0.6000    -0.4960 h1         1 28P       0.024200
     41 HAGA         3.5490     0.8010    -1.5070 h1         1 28P       0.024200
     42 HAX          4.4600     2.6920     0.5680 h1         1 28P       0.019367
     43 HAXA         6.0920     2.1080     0.7970 h1         1 28P       0.019367
     44 HAXB         5.4480     2.2840    -0.8430 h1         1 28P       0.019367
     45 HAB          5.2080    -1.3050    -0.2750 h1         1 28P       0.034700
     46 HABA         6.0440    -0.0820    -1.2150 h1         1 28P       0.034700
     47 HAC          7.4660     0.4590     0.7830 hc         1 28P       0.025200
     48 HACA         6.5270    -0.6440     1.7530 hc         1 28P       0.025200
@<TRIPOS>BOND
     1     1     2 ar  
     2     1     6 ar  
     3     1    25 1   
     4     2     3 ar  
     5     2    26 1   
     6     3     4 ar  
     7     3    27 1   
     8     4     5 ar  
     9     4    28 1   
    10     5     6 ar  
    11     5    29 1   
    12     6     7 1   
    13     7     8 1   
    14     7    30 1   
    15     7    31 1   
    16     8     9 ar  
    17     8    11 ar  
    18     9    10 ar  
    19     9    32 1   
    20    10    13 ar  
    21    10    33 1   
    22    11    12 ar  
    23    11    34 1   
    24    12    13 ar  
    25    12    35 1   
    26    13    14 1   
    27    14    15 1   
    28    15    16 1   
    29    15    36 1   
    30    15    37 1   
    31    16    17 1   
    32    16    38 1   
    33    16    39 1   
    34    17    18 1   
    35    17    40 1   
    36    17    41 1   
    37    18    19 1   
    38    18    20 1   
    39    19    42 1   
    40    19    43 1   
    41    19    44 1   
    42    20    21 1   
    43    20    45 1   
    44    20    46 1   
    45    21    22 1   
    46    21    47 1   
    47    21    48 1   
    48    22    23 1   
    49    22    24 1   
@<TRIPOS>SUBSTRUCTURE
     1 28P         1 TEMP              0 ****  ****    0 ROOT
