@<TRIPOS>MOLECULE
28P
   48    49     1     0     0
SMALL
No Charge or Current Charge


@<TRIPOS>ATOM
      1 CAQ         -6.8160    -0.0650     0.9050 ca         1 28P      -0.104500
      2 CAR         -7.4210    -1.1060     1.6310 ca         1 28P      -0.109500
      3 CAS         -7.4410    -2.4100     1.1080 ca         1 28P      -0.114000
      4 CAT         -6.8550    -2.6730    -0.1410 ca         1 28P      -0.109500
      5 CAU         -6.2490    -1.6320    -0.8680 ca         1 28P      -0.104500
      6 CAP         -6.2280    -0.3220    -0.3500 ca         1 28P      -0.071300
      7 CAO         -5.5670     0.8040    -1.1340 c3         1 28P       0.024200
      8 CAN         -4.0930     0.9430    -0.7770 ca         1 28P      -0.127300
      9 CAV         -3.1190     0.2140    -1.4870 ca         1 28P      -0.067500
     10 CAW         -1.7580     0.3360    -1.1560 ca         1 28P      -0.174000
     11 CAM         -3.6930     1.7930     0.2710 ca         1 28P      -0.067500
     12 CAL         -2.3330     1.9140     0.6030 ca         1 28P      -0.174000
     13 CAK         -1.3600     1.1910    -0.1050 ca         1 28P       0.158100
     14 OAJ         -0.0400     1.3510     0.2660 os         1 28P      -0.347100
     15 CAI          1.0300     0.6550    -0.3950 c3         1 28P       0.161600
     16 CAH          2.3480     1.0760     0.2780 c3         1 28P      -0.085400
     17 CAG          3.5770     0.3910    -0.3600 c3         1 28P       0.172800
     18 N1           4.8650     0.6130     0.3480 n3         1 28P      -0.721600
     19 CAX          5.2760     2.0420     0.3780 c3         1 28P       0.156100
     20 CAB          5.9280    -0.2910    -0.1680 c3         1 28P       0.177800
     21 CAC          7.2180    -0.3280     0.6760 c3         1 28P      -0.209400
     22 CAD          8.1230    -1.4360     0.1290 c          1 28P       0.718000
     23 OAF          7.9920    -2.5640     0.5780 o          1 28P      -0.741000
     24 OAE          8.9050    -1.1520    -0.7660 o          1 28P      -0.741000
     25 HAQ         -6.8020     0.9410     1.3180 ha         1 28P       0.109000
     26 HAR         -7.8740    -0.9010     2.5990 ha         1 28P       0.108500
     27 HAS         -7.9090    -3.2150     1.6700 ha         1 28P       0.108000
     28 HAT         -6.8680    -3.6820    -0.5460 ha         1 28P       0.108500
     29 HAU         -5.7950    -1.8450    -1.8330 ha         1 28P       0.109000
     30 HAO         -5.6780     0.6250    -2.2110 hc         1 28P       0.048200
     31 HAOA        -6.0900     1.7500    -0.9440 hc         1 28P       0.048200
     32 HAV         -3.4170    -0.4490    -2.2960 ha         1 28P       0.104500
     33 HAW         -1.0310    -0.2400    -1.7220 ha         1 28P       0.123000
     34 HAM         -4.4350     2.3580     0.8310 ha         1 28P       0.104500
     35 HAL         -2.0300     2.5720     1.4130 ha         1 28P       0.123000
     36 HAI          0.9020    -0.4320    -0.3020 h1         1 28P       0.032700
     37 HAIA         1.0630     0.9170    -1.4610 h1         1 28P       0.032700
     38 HAH          2.4450     2.1650     0.2010 hc         1 28P       0.058200
     39 HAHA         2.3060     0.8210     1.3430 hc         1 28P       0.058200
     40 HAG          3.3680    -0.6880    -0.3860 h1         1 28P       0.024200
     41 HAGA         3.6630     0.7220    -1.4040 h1         1 28P       0.024200
     42 HAX          4.4990     2.6700     0.8300 h1         1 28P       0.019367
     43 HAXA         6.1820     2.1830     0.9800 h1         1 28P       0.019367
     44 HAXB         5.4730     2.4120    -0.6370 h1         1 28P       0.019367
     45 HAB          5.5350    -1.3170    -0.2070 h1         1 28P       0.034700
     46 HABA         6.1890    -0.0140    -1.1990 h1         1 28P       0.034700
     47 HAC          7.7050     0.6470     0.5580 hc         1 28P       0.025200
     48 HACA         6.9060    -0.5540     1.7030 hc         1 28P       0.025200
@<TRIPOS>BOND
     1     1     2 ar  
     2     1     6 ar  
     3     1    25 1   
     4     2     3 ar  
     5     2    26 1   
     6     3     4 ar  
     7     3    27 1   
     8     4     5 ar  
     9     4    28 1   
    10     5     6 ar  
    11     5    29 1   
    12     6     7 1   
    13     7     8 1   
    14     7    30 1   
    15     7    31 1   
    16     8     9 ar  
    17     8    11 ar  
    18     9    10 ar  
    19     9    32 1   
    20    10    13 ar  
    21    10    33 1   
    22    11    12 ar  
    23    11    34 1   
    24    12    13 ar  
    25    12    35 1   
    26    13    14 1   
    27    14    15 1   
    28    15    16 1   
    29    15    36 1   
    30    15    37 1   
    31    16    17 1   
    32    16    38 1   
    33    16    39 1   
    34    17    18 1   
    35    17    40 1   
    36    17    41 1   
    37    18    19 1   
    38    18    20 1   
    39    19    42 1   
    40    19    43 1   
    41    19    44 1   
    42    20    21 1   
    43    20    45 1   
    44    20    46 1   
    45    21    22 1   
    46    21    47 1   
    47    21    48 1   
    48    22    23 1   
    49    22    24 1   
@<TRIPOS>SUBSTRUCTURE
     1 28P         1 TEMP              0 ****  ****    0 ROOT
