@<TRIPOS>MOLECULE
28Q
   62    64     1     0     0
SMALL
bcc


@<TRIPOS>ATOM
      1 C1          -4.1280     0.6070     0.2300 ca         1 28Q      -0.089000
      2 C2          -3.3520     1.7600     0.1310 ca         1 28Q      -0.071300
      3 C3          -2.0180     1.5970    -0.2860 ca         1 28Q       0.117100
      4 C4          -1.4690     0.3270    -0.4990 ca         1 28Q      -0.110300
      5 C5          -2.2880    -0.7880    -0.3710 ca         1 28Q      -0.114000
      6 C6          -3.6260    -0.6680    -0.0240 ca         1 28Q      -0.039800
      7 C7          -4.4610    -1.8730     0.1330 cc         1 28Q      -0.154400
      8 C8          -3.9980    -2.9700     0.8070 cd         1 28Q      -0.036000
      9 C9          -4.7630    -4.1490     0.9490 cd         1 28Q      -0.246000
     10 C10         -5.9980    -4.1720     0.3920 cc         1 28Q       0.018600
     11 N11         -6.4620    -3.0920    -0.2750 ns         1 28Q      -0.431100
     12 C13         -5.7850    -1.9030    -0.4610 c          1 28Q       0.697700
     13 O14         -6.3100    -0.9910    -1.0930 o          1 28Q      -0.631500
     14 C15         -0.0030     0.1190    -0.7690 c3         1 28Q      -0.019100
     15 C16          0.8450     0.2630     0.5050 c3         1 28Q      -0.033100
     16 C17          2.3000     0.0340     0.2150 ca         1 28Q      -0.069300
     17 C18          3.1840     1.1010     0.0810 ca         1 28Q      -0.116500
     18 C19          4.5130     0.8990    -0.2600 ca         1 28Q      -0.122500
     19 C20          4.9850    -0.3920    -0.4610 ca         1 28Q       0.086600
     20 C21          4.1180    -1.4710    -0.3190 ca         1 28Q      -0.122500
     21 C22          2.7890    -1.2550     0.0070 ca         1 28Q      -0.116500
     22 N23          6.3380    -0.5970    -0.8420 nu         1 28Q      -0.682500
     23 S24          7.5370    -0.5070     0.3050 s6         1 28Q       1.218900
     24 O25          8.7830    -0.7270    -0.4100 o          1 28Q      -0.596300
     25 O26          7.3380     0.7290     1.0440 o          1 28Q      -0.596300
     26 C27          7.2680    -1.8660     1.4190 c3         1 28Q      -0.272300
     27 O28         -1.2140     2.6910    -0.4400 os         1 28Q      -0.347900
     28 C29         -0.9760     3.1000    -1.7800 c3         1 28Q       0.128700
     29 C30         -3.9400     3.1170     0.5460 c3         1 28Q       0.012300
     30 C31         -5.3990     2.9800     0.9990 c3         1 28Q      -0.085100
     31 C32         -3.1480     3.6790     1.7370 c3         1 28Q      -0.085100
     32 C33         -3.9360     4.1350    -0.6020 c3         1 28Q      -0.085100
     33 H1          -5.1590     0.6910     0.5330 ha         1 28Q       0.147000
     34 H2          -1.8660    -1.7690    -0.5620 ha         1 28Q       0.127000
     35 H3          -3.0150    -2.9320     1.2600 ha         1 28Q       0.138000
     36 H4          -4.3860    -5.0040     1.4900 ha         1 28Q       0.152000
     37 H5          -6.6660    -5.0190     0.4430 h4         1 28Q       0.151000
     38 H6          -7.3840    -3.1430    -0.6860 hn         1 28Q       0.326500
     39 H7           0.1380    -0.8860    -1.1730 hc         1 28Q       0.047700
     40 H8           0.3850     0.7980    -1.5280 hc         1 28Q       0.047700
     41 H9           0.7020     1.2590     0.9250 hc         1 28Q       0.059200
     42 H10          0.4910    -0.4530     1.2520 hc         1 28Q       0.059200
     43 H11          2.8260     2.1130     0.2330 ha         1 28Q       0.138000
     44 H12          5.1760     1.7430    -0.3870 ha         1 28Q       0.144000
     45 H13          4.4800    -2.4800    -0.4730 ha         1 28Q       0.144000
     46 H14          2.1230    -2.1040     0.1050 ha         1 28Q       0.138000
     47 H15          6.4870    -1.3740    -1.4780 hn         1 28Q       0.431800
     48 H16          6.2870    -1.7670     1.8790 h1         1 28Q       0.102033
     49 H17          7.3330    -2.8000     0.8660 h1         1 28Q       0.102033
     50 H18          8.0400    -1.8300     2.1850 h1         1 28Q       0.102033
     51 H19         -0.2280     2.4780    -2.2760 h1         1 28Q       0.035700
     52 H20         -1.8880     3.0810    -2.3800 h1         1 28Q       0.035700
     53 H21         -0.6020     4.1230    -1.7430 h1         1 28Q       0.035700
     54 H22         -5.5120     2.3090     1.8520 hc         1 28Q       0.036478
     55 H23         -5.7710     3.9580     1.3050 hc         1 28Q       0.036478
     56 H24         -6.0480     2.6230     0.1970 hc         1 28Q       0.036478
     57 H25         -2.1130     3.8900     1.4810 hc         1 28Q       0.036478
     58 H26         -3.6050     4.6120     2.0750 hc         1 28Q       0.036478
     59 H27         -3.1550     2.9820     2.5770 hc         1 28Q       0.036478
     60 H28         -4.4280     3.7370    -1.4920 hc         1 28Q       0.036478
     61 H29         -4.4840     5.0280    -0.2950 hc         1 28Q       0.036478
     62 H30         -2.9370     4.4580    -0.8780 hc         1 28Q       0.036478
@<TRIPOS>BOND
     1     1     2 ar  
     2     1     6 ar  
     3     1    33 1   
     4     2     3 ar  
     5     2    29 1   
     6     3     4 ar  
     7     3    27 1   
     8     4     5 ar  
     9     4    14 1   
    10     5     6 ar  
    11     5    34 1   
    12     6     7 1   
    13     7     8 2   
    14     7    12 1   
    15     8     9 1   
    16     8    35 1   
    17     9    10 2   
    18     9    36 1   
    19    10    11 1   
    20    10    37 1   
    21    11    12 1   
    22    11    38 1   
    23    12    13 2   
    24    14    15 1   
    25    14    39 1   
    26    14    40 1   
    27    15    16 1   
    28    15    41 1   
    29    15    42 1   
    30    16    17 ar  
    31    16    21 ar  
    32    17    18 ar  
    33    17    43 1   
    34    18    19 ar  
    35    18    44 1   
    36    19    20 ar  
    37    19    22 1   
    38    20    21 ar  
    39    20    45 1   
    40    21    46 1   
    41    22    23 1   
    42    22    47 1   
    43    23    24 2   
    44    23    25 2   
    45    23    26 1   
    46    26    48 1   
    47    26    49 1   
    48    26    50 1   
    49    27    28 1   
    50    28    51 1   
    51    28    52 1   
    52    28    53 1   
    53    29    30 1   
    54    29    31 1   
    55    29    32 1   
    56    30    54 1   
    57    30    55 1   
    58    30    56 1   
    59    31    57 1   
    60    31    58 1   
    61    31    59 1   
    62    32    60 1   
    63    32    61 1   
    64    32    62 1   
@<TRIPOS>SUBSTRUCTURE
     1 28Q         1 TEMP              0 ****  ****    0 ROOT
