@<TRIPOS>MOLECULE
28Q
   62    64     1     0     0
SMALL
No Charge or Current Charge


@<TRIPOS>ATOM
      1 C1          -4.2790     0.5520     0.2700 ca         1 28Q      -0.071000
      2 C2          -3.4120     1.6750     0.3300 ca         1 28Q      -0.071300
      3 C3          -2.0410     1.4720    -0.0280 ca         1 28Q       0.117100
      4 C4          -1.5690     0.1730    -0.3860 ca         1 28Q      -0.110300
      5 C5          -2.4760    -0.9010    -0.4260 ca         1 28Q      -0.096000
      6 C6          -3.8250    -0.7190    -0.1070 ca         1 28Q      -0.039800
      7 C7          -4.7570    -1.8490    -0.1510 cc         1 28Q      -0.154400
      8 C8          -4.3980    -2.9460     0.6170 cd         1 28Q      -0.086000
      9 C9          -5.2650    -4.0990     0.6330 cd         1 28Q      -0.296000
     10 C10         -6.4280    -4.0870    -0.1090 cc         1 28Q      -0.031400
     11 N11         -6.7540    -2.9700    -0.8610 ns         1 28Q      -0.364100
     12 C13         -6.0080    -1.8220    -0.9510 c          1 28Q       0.555200
     13 O14         -6.3730    -0.8840    -1.6450 o          1 28Q      -0.556000
     14 C15         -0.1020    -0.1570    -0.6840 c3         1 28Q      -0.019100
     15 C16          0.8150    -0.0130     0.5520 c3         1 28Q      -0.033100
     16 C17          2.2700    -0.3300     0.2300 ca         1 28Q      -0.069300
     17 C18          3.2000     0.7060     0.0310 ca         1 28Q      -0.098500
     18 C19          4.5410     0.4100    -0.2720 ca         1 28Q      -0.104500
     19 C20          4.9740    -0.9280    -0.3740 ca         1 28Q       0.225000
     20 C21          4.0380    -1.9590    -0.1810 ca         1 28Q      -0.104500
     21 C22          2.6970    -1.6660     0.1210 ca         1 28Q      -0.098500
     22 N23          6.2940    -1.2780    -0.6730 nu         1 28Q      -0.876100
     23 S24          7.6980    -0.4050    -0.5010 s6         1 28Q       1.188100
     24 O25          8.7720    -1.3710    -0.7310 o          1 28Q      -0.525500
     25 O26          7.5660     0.7790    -1.3540 o          1 28Q      -0.525500
     26 C27          7.7270     0.0900     1.2090 c3         1 28Q      -0.383100
     27 O28         -1.1680     2.5800     0.0110 os         1 28Q      -0.371100
     28 C29         -0.2280     3.0030    -1.0390 c3         1 28Q       0.151900
     29 C30         -3.9660     3.0790     0.7660 c3         1 28Q       0.012300
     30 C31         -5.4840     3.0530     1.1250 c3         1 28Q      -0.085100
     31 C32         -3.2280     3.5860     2.0390 c3         1 28Q      -0.085100
     32 C33         -3.8120     4.1090    -0.3910 c3         1 28Q      -0.085100
     33 H1          -5.3300     0.6330     0.5200 ha         1 28Q       0.129000
     34 H2          -2.1300    -1.8940    -0.7040 ha         1 28Q       0.109000
     35 H3          -3.4820    -2.9410     1.2050 ha         1 28Q       0.188000
     36 H4          -5.0060    -4.9730     1.2270 ha         1 28Q       0.202000
     37 H5          -7.1570    -4.8920    -0.1750 h4         1 28Q       0.201000
     38 H6          -7.6100    -2.9650    -1.4040 hn         1 28Q       0.326500
     39 H7          -0.0140    -1.1920    -1.0380 hc         1 28Q       0.047700
     40 H8           0.2760     0.4400    -1.5190 hc         1 28Q       0.047700
     41 H9           0.7320     1.0000     0.9640 hc         1 28Q       0.059200
     42 H10          0.4540    -0.6850     1.3400 hc         1 28Q       0.059200
     43 H11          2.8860     1.7450     0.1060 ha         1 28Q       0.120000
     44 H12          5.2300     1.2330    -0.4290 ha         1 28Q       0.126000
     45 H13          4.3500    -2.9970    -0.2630 ha         1 28Q       0.126000
     46 H14          1.9890    -2.4790     0.2690 ha         1 28Q       0.120000
     47 H15          6.5600    -2.2520    -0.6130 hn         1 28Q       0.487000
     48 H16          6.8520     0.7210     1.3920 h1         1 28Q       0.102033
     49 H17          7.6960    -0.8190     1.8170 h1         1 28Q       0.102033
     50 H18          8.6560     0.6460     1.3730 h1         1 28Q       0.102033
     51 H19          0.7160     2.4500    -0.9820 h1         1 28Q       0.035700
     52 H20         -0.6690     2.8650    -2.0340 h1         1 28Q       0.035700
     53 H21          0.0140     4.0660    -0.9170 h1         1 28Q       0.035700
     54 H22         -5.6830     2.3680     1.9590 hc         1 28Q       0.036478
     55 H23         -5.8340     4.0460     1.4330 hc         1 28Q       0.036478
     56 H24         -6.0920     2.7500     0.2640 hc         1 28Q       0.036478
     57 H25         -2.1740     3.8120     1.8550 hc         1 28Q       0.036478
     58 H26         -3.6870     4.5090     2.4170 hc         1 28Q       0.036478
     59 H27         -3.2780     2.8350     2.8370 hc         1 28Q       0.036478
     60 H28         -4.2670     3.7240    -1.3120 hc         1 28Q       0.036478
     61 H29         -4.3060     5.0560    -0.1410 hc         1 28Q       0.036478
     62 H30         -2.7660     4.3460    -0.6050 hc         1 28Q       0.036478
@<TRIPOS>BOND
     1     1     2 ar  
     2     1     6 ar  
     3     1    33 1   
     4     2     3 ar  
     5     2    29 1   
     6     3     4 ar  
     7     3    27 1   
     8     4     5 ar  
     9     4    14 1   
    10     5     6 ar  
    11     5    34 1   
    12     6     7 1   
    13     7     8 2   
    14     7    12 1   
    15     8     9 1   
    16     8    35 1   
    17     9    10 2   
    18     9    36 1   
    19    10    11 1   
    20    10    37 1   
    21    11    12 1   
    22    11    38 1   
    23    12    13 2   
    24    14    15 1   
    25    14    39 1   
    26    14    40 1   
    27    15    16 1   
    28    15    41 1   
    29    15    42 1   
    30    16    17 ar  
    31    16    21 ar  
    32    17    18 ar  
    33    17    43 1   
    34    18    19 ar  
    35    18    44 1   
    36    19    20 ar  
    37    19    22 1   
    38    20    21 ar  
    39    20    45 1   
    40    21    46 1   
    41    22    23 1   
    42    22    47 1   
    43    23    24 2   
    44    23    25 2   
    45    23    26 1   
    46    26    48 1   
    47    26    49 1   
    48    26    50 1   
    49    27    28 1   
    50    28    51 1   
    51    28    52 1   
    52    28    53 1   
    53    29    30 1   
    54    29    31 1   
    55    29    32 1   
    56    30    54 1   
    57    30    55 1   
    58    30    56 1   
    59    31    57 1   
    60    31    58 1   
    61    31    59 1   
    62    32    60 1   
    63    32    61 1   
    64    32    62 1   
@<TRIPOS>SUBSTRUCTURE
     1 28Q         1 TEMP              0 ****  ****    0 ROOT
