@<TRIPOS>MOLECULE
28R
   58    61     1     0     0
SMALL
abcg2


@<TRIPOS>ATOM
      1 C1           3.3770    -0.6950    -0.1300 ca         1 28R      -0.049800
      2 C2           4.0090     0.5480    -0.1480 ca         1 28R      -0.076000
      3 C3           3.3300     1.7640    -0.1300 ca         1 28R      -0.084300
      4 C4           1.9280     1.7020    -0.0880 ca         1 28R       0.156100
      5 C5           1.2740     0.4650     0.0110 ca         1 28R      -0.165900
      6 C6           1.9960    -0.7230    -0.0250 ca         1 28R      -0.021000
      7 C7          -0.1710     0.3420     0.1830 cc         1 28R       0.605200
      8 N8          -0.9030    -0.6380    -0.2260 nd         1 28R      -0.577100
      9 C9          -2.1690    -0.3470     0.2370 ca         1 28R       0.066400
     10 C10         -2.1190     0.8570     0.9270 ca         1 28R       0.028100
     11 O11         -0.8350     1.2850     0.8920 os         1 28R      -0.252700
     12 C12         -3.2160     1.4450     1.5220 ca         1 28R      -0.077000
     13 C13         -4.4100     0.7520     1.4020 ca         1 28R      -0.063000
     14 C14         -4.4890    -0.4600     0.7000 ca         1 28R       0.220000
     15 C15         -3.3720    -1.0270     0.1010 ca         1 28R      -0.082000
     16 N16         -5.7430    -1.1240     0.6390 nu         1 28R      -0.876100
     17 S17         -6.8940    -0.5940    -0.4380 s6         1 28R       1.188100
     18 O18         -8.0710    -1.4110    -0.1970 o          1 28R      -0.525500
     19 O19         -6.9780     0.8500    -0.2990 o          1 28R      -0.525500
     20 C20         -6.2700    -0.9620    -2.0610 c3         1 28R      -0.383100
     21 O21          1.1960     2.8440    -0.1200 os         1 28R      -0.357100
     22 C22          0.4630     3.0790    -1.3170 c3         1 28R       0.152900
     23 C23          4.1030     3.0890    -0.1150 c3         1 28R       0.014300
     24 C24          3.7990     3.8570     1.1800 c3         1 28R      -0.085767
     25 C25          5.6170     2.8530    -0.1510 c3         1 28R      -0.085767
     26 C26          3.7620     3.9590    -1.3340 c3         1 28R      -0.085767
     27 C27          4.1810    -1.9250    -0.2420 cc         1 28R      -0.159400
     28 C28          3.9000    -3.0450     0.6360 c          1 28R       0.556200
     29 O29          3.0240    -3.0800     1.4960 o          1 28R      -0.553000
     30 N30          4.7300    -4.1320     0.4500 ns         1 28R      -0.361100
     31 C32          5.7350    -4.2150    -0.4490 cc         1 28R      -0.027400
     32 C33          6.0050    -3.1700    -1.2700 cd         1 28R      -0.297000
     33 C34          5.2020    -2.0160    -1.1490 cd         1 28R      -0.082000
     34 H1           5.0890     0.5470    -0.1710 ha         1 28R       0.118000
     35 H2           1.4620    -1.6600     0.0310 ha         1 28R       0.151000
     36 H3          -3.1550     2.3770     2.0650 ha         1 28R       0.144000
     37 H4          -5.3000     1.1430     1.8740 ha         1 28R       0.147000
     38 H5          -3.4340    -1.9610    -0.4430 ha         1 28R       0.131000
     39 H6          -5.6920    -2.1370     0.6680 hn         1 28R       0.489000
     40 H7          -6.1390    -2.0370    -2.1600 h1         1 28R       0.103367
     41 H8          -7.0020    -0.6090    -2.7850 h1         1 28R       0.103367
     42 H9          -5.3240    -0.4480    -2.2160 h1         1 28R       0.103367
     43 H10         -0.0150     4.0500    -1.2050 h1         1 28R       0.039033
     44 H11          1.1190     3.1040    -2.1890 h1         1 28R       0.039033
     45 H12         -0.3130     2.3310    -1.4920 h1         1 28R       0.039033
     46 H13          4.3880     4.7770     1.2050 hc         1 28R       0.037367
     47 H14          2.7510     4.1330     1.2680 hc         1 28R       0.037367
     48 H15          4.0740     3.2680     2.0570 hc         1 28R       0.037367
     49 H16          6.1250     3.8170    -0.1210 hc         1 28R       0.037367
     50 H17          5.9730     2.2770     0.7050 hc         1 28R       0.037367
     51 H18          5.9370     2.3460    -1.0630 hc         1 28R       0.037367
     52 H19          3.8500     3.3940    -2.2630 hc         1 28R       0.037367
     53 H20          2.7630     4.3820    -1.2840 hc         1 28R       0.037367
     54 H21          4.4610     4.7950    -1.3890 hc         1 28R       0.037367
     55 H22          4.5590    -4.9270     1.0510 hn         1 28R       0.328500
     56 H23          6.2830    -5.1460    -0.4630 h4         1 28R       0.202000
     57 H24          6.8020    -3.2290    -1.9940 ha         1 28R       0.203000
     58 H25          5.3950    -1.1790    -1.8100 ha         1 28R       0.188000
@<TRIPOS>BOND
     1     1     2 ar  
     2     1     6 ar  
     3     1    27 1   
     4     2     3 ar  
     5     2    34 1   
     6     3     4 ar  
     7     3    23 1   
     8     4     5 ar  
     9     4    21 1   
    10     5     6 ar  
    11     5     7 1   
    12     6    35 1   
    13     7     8 2   
    14     7    11 1   
    15     8     9 1   
    16     9    10 ar  
    17     9    15 ar  
    18    10    11 1   
    19    10    12 ar  
    20    12    13 ar  
    21    12    36 1   
    22    13    14 ar  
    23    13    37 1   
    24    14    15 ar  
    25    14    16 1   
    26    15    38 1   
    27    16    17 1   
    28    16    39 1   
    29    17    18 2   
    30    17    19 2   
    31    17    20 1   
    32    20    40 1   
    33    20    41 1   
    34    20    42 1   
    35    21    22 1   
    36    22    43 1   
    37    22    44 1   
    38    22    45 1   
    39    23    24 1   
    40    23    25 1   
    41    23    26 1   
    42    24    46 1   
    43    24    47 1   
    44    24    48 1   
    45    25    49 1   
    46    25    50 1   
    47    25    51 1   
    48    26    52 1   
    49    26    53 1   
    50    26    54 1   
    51    27    28 1   
    52    27    33 2   
    53    28    29 2   
    54    28    30 1   
    55    30    31 1   
    56    30    55 1   
    57    31    32 2   
    58    31    56 1   
    59    32    33 1   
    60    32    57 1   
    61    33    58 1   
@<TRIPOS>SUBSTRUCTURE
     1 28R         1 TEMP              0 ****  ****    0 ROOT
