@<TRIPOS>MOLECULE
28R
   58    61     1     0     0
SMALL
No Charge or Current Charge


@<TRIPOS>ATOM
      1 C1           3.5690    -0.7480    -0.0440 ca         1 28R      -0.049800
      2 C2           4.1970     0.5080    -0.0730 ca         1 28R      -0.076000
      3 C3           3.4570     1.7180    -0.1530 ca         1 28R      -0.084300
      4 C4           2.0330     1.6100    -0.2100 ca         1 28R       0.156100
      5 C5           1.3930     0.3500    -0.0990 ca         1 28R      -0.165900
      6 C6           2.1710    -0.8200    -0.0530 ca         1 28R      -0.021000
      7 C7          -0.0630     0.2140    -0.0620 cc         1 28R       0.605200
      8 N8          -0.7610    -0.8000    -0.6080 nd         1 28R      -0.577100
      9 C9          -2.0360    -0.5160    -0.1760 ca         1 28R       0.066400
     10 C10         -2.0380     0.5990     0.6060 ca         1 28R       0.028100
     11 O11         -0.7880     1.1040     0.7260 os         1 28R      -0.252700
     12 C12         -3.2060     1.1050     1.1840 ca         1 28R      -0.077000
     13 C13         -4.4140     0.4180     0.9330 ca         1 28R      -0.063000
     14 C14         -4.4310    -0.7450     0.1150 ca         1 28R       0.220000
     15 C15         -3.2200    -1.2180    -0.4390 ca         1 28R      -0.082000
     16 N16         -5.6030    -1.4590    -0.1590 nu         1 28R      -0.876100
     17 S17         -7.1930    -0.9750    -0.1000 s6         1 28R       1.188100
     18 O18         -7.9420    -2.0670    -0.7230 o          1 28R      -0.525500
     19 O19         -7.4610    -0.5810     1.2840 o          1 28R      -0.525500
     20 C20         -7.2750     0.4560    -1.1560 c3         1 28R      -0.383100
     21 O21          1.2510     2.7660    -0.3920 os         1 28R      -0.357100
     22 C22          0.3520     3.0140    -1.5380 c3         1 28R       0.152900
     23 C23          4.1940     3.1030    -0.1870 c3         1 28R       0.014300
     24 C24          3.7140     4.0000     0.9900 c3         1 28R      -0.085767
     25 C25          5.7400     2.9730    -0.0340 c3         1 28R      -0.085767
     26 C26          3.9440     3.8210    -1.5420 c3         1 28R      -0.085767
     27 C27          4.3660    -1.9760     0.0230 cc         1 28R      -0.159400
     28 C28          4.1720    -2.9970     1.0840 c          1 28R       0.556200
     29 O29          3.3550    -2.9150     1.9890 o          1 28R      -0.553000
     30 N30          5.0080    -4.0790     0.9770 ns         1 28R      -0.361100
     31 C32          5.9660    -4.2650    -0.0050 cc         1 28R      -0.027400
     32 C33          6.1350    -3.3100    -0.9880 cd         1 28R      -0.297000
     33 C34          5.3110    -2.1260    -0.9800 cd         1 28R      -0.082000
     34 H1           5.2800     0.5100    -0.0330 ha         1 28R       0.118000
     35 H2           1.6890    -1.7940    -0.0040 ha         1 28R       0.151000
     36 H3          -3.1820     1.9940     1.8090 ha         1 28R       0.144000
     37 H4          -5.3250     0.7950     1.3840 ha         1 28R       0.147000
     38 H5          -3.1990    -2.1080    -1.0610 ha         1 28R       0.131000
     39 H6          -5.5660    -2.2150    -0.8310 hn         1 28R       0.489000
     40 H7          -6.9430     0.1510    -2.1530 h1         1 28R       0.103367
     41 H8          -8.3170     0.7920    -1.1700 h1         1 28R       0.103367
     42 H9          -6.6190     1.2230    -0.7360 h1         1 28R       0.103367
     43 H10         -0.1000     4.0110    -1.4560 h1         1 28R       0.039033
     44 H11          0.9120     2.9700    -2.4800 h1         1 28R       0.039033
     45 H12         -0.4580     2.2790    -1.5880 h1         1 28R       0.039033
     46 H13          4.2980     4.9270     1.0400 hc         1 28R       0.037367
     47 H14          2.6640     4.2940     0.8940 hc         1 28R       0.037367
     48 H15          3.8310     3.4770     1.9460 hc         1 28R       0.037367
     49 H16          6.2200     3.9590    -0.0320 hc         1 28R       0.037367
     50 H17          6.0060     2.4810     0.9100 hc         1 28R       0.037367
     51 H18          6.1770     2.4050    -0.8650 hc         1 28R       0.037367
     52 H19          4.1830     3.1570    -2.3820 hc         1 28R       0.037367
     53 H20          2.9080     4.1500    -1.6530 hc         1 28R       0.037367
     54 H21          4.5700     4.7170    -1.6330 hc         1 28R       0.037367
     55 H22          4.8860    -4.7830     1.6970 hn         1 28R       0.328500
     56 H23          6.5240    -5.1930     0.0910 h4         1 28R       0.202000
     57 H24          6.8840    -3.4530    -1.7640 ha         1 28R       0.203000
     58 H25          5.4300    -1.3720    -1.7560 ha         1 28R       0.188000
@<TRIPOS>BOND
     1     1     2 ar  
     2     1     6 ar  
     3     1    27 1   
     4     2     3 ar  
     5     2    34 1   
     6     3     4 ar  
     7     3    23 1   
     8     4     5 ar  
     9     4    21 1   
    10     5     6 ar  
    11     5     7 1   
    12     6    35 1   
    13     7     8 2   
    14     7    11 1   
    15     8     9 1   
    16     9    10 ar  
    17     9    15 ar  
    18    10    11 1   
    19    10    12 ar  
    20    12    13 ar  
    21    12    36 1   
    22    13    14 ar  
    23    13    37 1   
    24    14    15 ar  
    25    14    16 1   
    26    15    38 1   
    27    16    17 1   
    28    16    39 1   
    29    17    18 2   
    30    17    19 2   
    31    17    20 1   
    32    20    40 1   
    33    20    41 1   
    34    20    42 1   
    35    21    22 1   
    36    22    43 1   
    37    22    44 1   
    38    22    45 1   
    39    23    24 1   
    40    23    25 1   
    41    23    26 1   
    42    24    46 1   
    43    24    47 1   
    44    24    48 1   
    45    25    49 1   
    46    25    50 1   
    47    25    51 1   
    48    26    52 1   
    49    26    53 1   
    50    26    54 1   
    51    27    28 1   
    52    27    33 2   
    53    28    29 2   
    54    28    30 1   
    55    30    31 1   
    56    30    55 1   
    57    31    32 2   
    58    31    56 1   
    59    32    33 1   
    60    32    57 1   
    61    33    58 1   
@<TRIPOS>SUBSTRUCTURE
     1 28R         1 TEMP              0 ****  ****    0 ROOT
