@<TRIPOS>MOLECULE
28S
   25    26     1     0     0
SMALL
No Charge or Current Charge


@<TRIPOS>ATOM
      1 C1           1.6710    -0.0050     0.1450 ca         1 28S      -0.040900
      2 N1          -2.8350     1.7550    -0.2040 nb         1 28S      -0.296000
      3 Br1          2.8800    -1.4850     0.2160 br         1 28S      -0.093100
      4 C2           2.1680     1.3050     0.2180 ca         1 28S      -0.062000
      5 N2          -0.9500     3.2370    -0.0080 nb         1 28S      -0.215000
      6 C3           1.2800     2.3930     0.1660 ca         1 28S      -0.098000
      7 N3          -2.6090    -0.5570    -0.2360 nu         1 28S      -0.917100
      8 C4          -0.1070     2.1850     0.0410 ca         1 28S       0.063000
      9 C5          -0.6060     0.8590    -0.0320 ca         1 28S      -0.184000
     10 C6           0.2920    -0.2340     0.0200 ca         1 28S      -0.041000
     11 C7          -2.0060     0.6970    -0.1570 ca         1 28S       0.409900
     12 C8          -2.2660     2.9710    -0.1270 ca         1 28S       0.180900
     13 C9          -4.0380    -0.8600    -0.3010 c3         1 28S       0.257000
     14 C10         -4.1780    -2.3620    -0.3680 c2         1 28S      -0.254200
     15 C11         -3.8820    -3.2230     0.6220 c2         1 28S      -0.291000
     16 H2           3.2370     1.4800     0.3140 ha         1 28S       0.133000
     17 H3           1.6710     3.4060     0.2230 ha         1 28S       0.139000
     18 HN3         -1.9870    -1.3590    -0.1780 hn         1 28S       0.497000
     19 H6          -0.0630    -1.2600    -0.0340 ha         1 28S       0.120000
     20 H8          -2.9350     3.8290    -0.1660 h5         1 28S       0.045100
     21 H9          -4.5590    -0.4720     0.5870 h1         1 28S       0.066200
     22 H9A         -4.4920    -0.3980    -1.1910 h1         1 28S       0.066200
     23 H10         -4.5580    -2.7260    -1.3250 ha         1 28S       0.179000
     24 H11         -3.5050    -2.8820     1.5880 ha         1 28S       0.167500
     25 H11A        -4.0110    -4.3000     0.5010 ha         1 28S       0.167500
@<TRIPOS>BOND
     1     1     3 1   
     2     1     4 ar  
     3     1    10 ar  
     4     2    11 ar  
     5     2    12 ar  
     6     4     6 ar  
     7     4    16 1   
     8     5     8 ar  
     9     5    12 ar  
    10     6     8 ar  
    11     6    17 1   
    12     7    11 1   
    13     7    13 1   
    14     7    18 1   
    15     8     9 ar  
    16     9    10 ar  
    17     9    11 ar  
    18    10    19 1   
    19    12    20 1   
    20    13    14 1   
    21    13    21 1   
    22    13    22 1   
    23    14    15 2   
    24    14    23 1   
    25    15    24 1   
    26    15    25 1   
@<TRIPOS>SUBSTRUCTURE
     1 28S         1 TEMP              0 ****  ****    0 ROOT
