@<TRIPOS>MOLECULE
28S
   25    26     1     0     0
SMALL
bcc


@<TRIPOS>ATOM
      1 C1           1.8130     0.1540     0.0930 ca         1 28S      -0.040900
      2 N1          -2.7550     1.5980    -0.1160 nb         1 28S      -0.822000
      3 BR1          3.1250    -1.1960     0.2010 br         1 28S      -0.093100
      4 C2           2.2230     1.4950     0.0240 ca         1 28S      -0.080000
      5 N2          -0.9950     3.1900    -0.1840 nb         1 28S      -0.741000
      6 C3           1.2810     2.4850    -0.0640 ca         1 28S      -0.181300
      7 N3          -2.4050    -0.6520     0.0610 nu         1 28S      -0.861900
      8 C4          -0.0940     2.1770    -0.0830 ca         1 28S       0.456600
      9 C5          -0.4860     0.8270    -0.0020 ca         1 28S      -0.314600
     10 C6           0.4850    -0.1860     0.0800 ca         1 28S      -0.059000
     11 C7          -1.9110     0.5860    -0.0170 ca         1 28S       0.738200
     12 C8          -2.2470     2.8330    -0.2010 ca         1 28S       0.706900
     13 C9          -3.8240    -0.9520     0.0860 c3         1 28S       0.257000
     14 C10         -4.0600    -2.3540    -0.3780 c2         1 28S      -0.204200
     15 C11         -4.6740    -3.2790     0.3490 c2         1 28S      -0.191000
     16 H2           3.2750     1.7500     0.0350 ha         1 28S       0.151000
     17 H3           1.5810     3.5240    -0.1240 ha         1 28S       0.157000
     18 HN3         -1.7830    -1.4150     0.2680 hn         1 28S       0.441800
     19 H6           0.2010    -1.2290     0.1300 ha         1 28S       0.138000
     20 H8          -2.9810     3.6270    -0.2890 h5         1 28S       0.045100
     21 H9          -4.2370    -0.7990     1.0870 h1         1 28S       0.066200
     22 H9A         -4.3310    -0.2520    -0.5800 h1         1 28S       0.066200
     23 H10         -3.7080    -2.5920    -1.3770 ha         1 28S       0.129000
     24 H11         -5.0350    -3.0710     1.3490 ha         1 28S       0.117500
     25 H11A        -4.8470    -4.2760    -0.0340 ha         1 28S       0.117500
@<TRIPOS>BOND
     1     1     3 1   
     2     1     4 ar  
     3     1    10 ar  
     4     2    11 ar  
     5     2    12 ar  
     6     4     6 ar  
     7     4    16 1   
     8     5     8 ar  
     9     5    12 ar  
    10     6     8 ar  
    11     6    17 1   
    12     7    11 1   
    13     7    13 1   
    14     7    18 1   
    15     8     9 ar  
    16     9    10 ar  
    17     9    11 ar  
    18    10    19 1   
    19    12    20 1   
    20    13    14 1   
    21    13    21 1   
    22    13    22 1   
    23    14    15 2   
    24    14    23 1   
    25    15    24 1   
    26    15    25 1   
@<TRIPOS>SUBSTRUCTURE
     1 28S         1 TEMP              0 ****  ****    0 ROOT
