@<TRIPOS>MOLECULE
28T
   38    39     1     0     0
SMALL
No Charge or Current Charge


@<TRIPOS>ATOM
      1 OAA          4.0830     0.5640    -1.8020 o          1 28T      -0.723000
      2 CAN          4.2500     0.8740    -0.6280 c          1 28T       0.726000
      3 OAD          4.9350     1.8380    -0.3110 o          1 28T      -0.723000
      4 CAR          3.5700     0.0280     0.5070 c5         1 28T      -0.027300
      5 CAK          4.2580    -1.3680     0.6000 c5         1 28T      -0.078400
      6 CAF          3.1660    -2.2130     1.2980 c5         1 28T      -0.096400
      7 CAL          1.8900    -1.7930     0.5250 c5         1 28T       0.107000
      8 NAS          2.1420    -0.3550     0.2890 n          1 28T      -0.377800
      9 CAP          1.1370     0.5730    -0.0660 c          1 28T       0.609100
     10 OAC          1.3840     1.7720    -0.1270 o          1 28T      -0.612100
     11 CAI         -0.2790     0.0340    -0.3670 c3         1 28T      -0.148400
     12 CAH         -1.3000     1.0730    -0.9150 c3         1 28T      -0.164400
     13 C           -2.6570     0.4380    -1.2600 c          1 28T       0.555100
     14 O           -2.7820    -0.2120    -2.2950 o          1 28T      -0.543100
     15 CA          -3.8400     0.7120    -0.2570 c5         1 28T       0.049500
     16 CB          -3.7380    -0.2460     0.9790 c5         1 28T      -0.089400
     17 CG          -5.1260    -0.9460     1.0160 c5         1 28T      -0.115400
     18 CD          -6.0270     0.1200     0.3630 c5         1 28T       0.148800
     19 N           -5.2230     0.5000    -0.8120 n7         1 28T      -0.843400
     20 H2           3.6670     0.5750     1.4540 h1         1 28T       0.049700
     21 H3           4.4870    -1.7760    -0.3920 hc         1 28T       0.047200
     22 H4           5.1960    -1.3350     1.1650 hc         1 28T       0.047200
     23 H5           3.3580    -3.2900     1.2360 hc         1 28T       0.029200
     24 H6           3.0870    -1.9540     2.3610 hc         1 28T       0.029200
     25 H7           1.8020    -2.3300    -0.4290 h1         1 28T       0.029700
     26 H8           0.9850    -1.9740     1.1180 h1         1 28T       0.029700
     27 H9          -0.1800    -0.8270    -1.0380 hc         1 28T       0.056200
     28 H10         -0.6470    -0.4460     0.5470 hc         1 28T       0.056200
     29 H11         -1.4410     1.8460    -0.1500 hc         1 28T       0.081700
     30 H12         -0.8850     1.5220    -1.8250 hc         1 28T       0.081700
     31 H13         -3.7370     1.7530     0.0850 h1         1 28T       0.088700
     32 H14         -2.9300    -0.9810     0.8940 hc         1 28T       0.054200
     33 H15         -3.5550     0.3250     1.8970 hc         1 28T       0.054200
     34 H16         -5.1230    -1.8750     0.4320 hc         1 28T       0.049200
     35 H17         -5.4440    -1.1990     2.0330 hc         1 28T       0.049200
     36 H18         -7.0110    -0.2790     0.0780 h1         1 28T       0.044200
     37 H19         -6.1820     0.9800     1.0310 h1         1 28T       0.044200
     38 H20         -5.1900    -0.3100    -1.4480 hn         1 28T       0.424000
@<TRIPOS>BOND
     1     1     2 1   
     2     2     3 1   
     3     2     4 1   
     4     4     5 1   
     5     4     8 1   
     6     4    20 1   
     7     5     6 1   
     8     5    21 1   
     9     5    22 1   
    10     6     7 1   
    11     6    23 1   
    12     6    24 1   
    13     7     8 1   
    14     7    25 1   
    15     7    26 1   
    16     8     9 1   
    17     9    10 2   
    18     9    11 1   
    19    11    12 1   
    20    11    27 1   
    21    11    28 1   
    22    12    13 1   
    23    12    29 1   
    24    12    30 1   
    25    13    14 2   
    26    13    15 1   
    27    15    16 1   
    28    15    19 1   
    29    15    31 1   
    30    16    17 1   
    31    16    32 1   
    32    16    33 1   
    33    17    18 1   
    34    17    34 1   
    35    17    35 1   
    36    18    19 1   
    37    18    36 1   
    38    18    37 1   
    39    19    38 1   
@<TRIPOS>SUBSTRUCTURE
     1 28T         1 TEMP              0 ****  ****    0 ROOT
