@<TRIPOS>MOLECULE
28T
   38    39     1     0     0
SMALL
bcc


@<TRIPOS>ATOM
      1 OAA          3.4030     1.0950    -1.5440 o          1 28T      -0.828300
      2 CAN          3.9070     1.1410    -0.4070 c          1 28T       0.936600
      3 OAD          4.7260     1.9770     0.0240 o          1 28T      -0.828300
      4 CAR          3.5590    -0.0110     0.5560 c5         1 28T      -0.027300
      5 CAK          4.5010    -1.2060     0.3240 c5         1 28T      -0.078400
      6 CAF          3.6180    -2.4300     0.5390 c5         1 28T      -0.096400
      7 CAL          2.2860    -1.9850    -0.0440 c5         1 28T       0.107000
      8 NAS          2.2390    -0.5790     0.3220 n          1 28T      -0.444800
      9 CAP          1.1450     0.1920     0.3660 c          1 28T       0.676100
     10 OAC          1.2000     1.3710     0.7050 o          1 28T      -0.612100
     11 CAI         -0.1640    -0.4750    -0.0080 c3         1 28T      -0.148400
     12 CAH         -1.3110     0.5130    -0.1000 c3         1 28T      -0.164400
     13 C           -2.6240    -0.1160    -0.4810 c          1 28T       0.555100
     14 O           -2.7090    -1.2500    -0.8970 o          1 28T      -0.543100
     15 CA          -3.8430     0.7800    -0.3550 c5         1 28T       0.049500
     16 CB          -4.3120     0.7950     1.1270 c5         1 28T      -0.089400
     17 CG          -5.4570    -0.2100     1.1360 c5         1 28T      -0.115400
     18 CD          -6.0910     0.0460    -0.2260 c5         1 28T       0.148800
     19 N           -4.9770     0.3060    -1.1400 n7         1 28T      -0.788200
     20 H2           3.6360     0.3360     1.5910 h1         1 28T       0.049700
     21 H3           4.8710    -1.2000    -0.7040 hc         1 28T       0.047200
     22 H4           5.3650    -1.1770     0.9860 hc         1 28T       0.047200
     23 H5           4.0030    -3.3290     0.0580 hc         1 28T       0.029200
     24 H6           3.5040    -2.6400     1.6050 hc         1 28T       0.029200
     25 H7           2.2720    -2.1100    -1.1330 h1         1 28T       0.029700
     26 H8           1.4430    -2.5400     0.3670 h1         1 28T       0.029700
     27 H9          -0.0460    -1.0060    -0.9550 hc         1 28T       0.056200
     28 H10         -0.3920    -1.2440     0.7370 hc         1 28T       0.056200
     29 H11         -1.4330     1.0710     0.8320 hc         1 28T       0.081700
     30 H12         -1.1070     1.2780    -0.8580 hc         1 28T       0.081700
     31 H13         -3.5420     1.7920    -0.6500 h1         1 28T       0.088700
     32 H14         -3.5170     0.5580     1.8350 hc         1 28T       0.054200
     33 H15         -4.6780     1.7920     1.3790 hc         1 28T       0.054200
     34 H16         -5.0720    -1.2320     1.1920 hc         1 28T       0.049200
     35 H17         -6.1440    -0.0640     1.9690 hc         1 28T       0.049200
     36 H18         -6.6960    -0.7830    -0.5940 h1         1 28T       0.044200
     37 H19         -6.7440     0.9220    -0.1700 h1         1 28T       0.044200
     38 H20         -4.7180    -0.5630    -1.5920 hn         1 28T       0.368800
@<TRIPOS>BOND
     1     1     2 1   
     2     2     3 1   
     3     2     4 1   
     4     4     5 1   
     5     4     8 1   
     6     4    20 1   
     7     5     6 1   
     8     5    21 1   
     9     5    22 1   
    10     6     7 1   
    11     6    23 1   
    12     6    24 1   
    13     7     8 1   
    14     7    25 1   
    15     7    26 1   
    16     8     9 1   
    17     9    10 2   
    18     9    11 1   
    19    11    12 1   
    20    11    27 1   
    21    11    28 1   
    22    12    13 1   
    23    12    29 1   
    24    12    30 1   
    25    13    14 2   
    26    13    15 1   
    27    15    16 1   
    28    15    19 1   
    29    15    31 1   
    30    16    17 1   
    31    16    32 1   
    32    16    33 1   
    33    17    18 1   
    34    17    34 1   
    35    17    35 1   
    36    18    19 1   
    37    18    36 1   
    38    18    37 1   
    39    19    38 1   
@<TRIPOS>SUBSTRUCTURE
     1 28T         1 TEMP              0 ****  ****    0 ROOT
