@<TRIPOS>MOLECULE
28U
   42    41     1     0     0
SMALL
abcg2


@<TRIPOS>ATOM
      1 C4           4.3350    -0.2450    -1.6420 c3         1 28U      -0.076100
      2 C5           2.2080    -0.2510    -0.2570 c3         1 28U      -0.099400
      3 C6           1.6040     1.0350    -0.8270 c3         1 28U      -0.034200
      4 C7           0.1080     0.9510    -0.8530 c2         1 28U      -0.224200
      5 C8          -0.7640     1.5220    -0.0190 c2         1 28U      -0.111400
      6 C10         -0.3880     2.4230     1.1210 c3         1 28U      -0.054900
      7 C13         -4.8220    -0.9060    -0.0550 c2         1 28U      -0.112400
      8 C15         -4.0550    -1.8990    -0.8770 c3         1 28U      -0.056400
      9 O16          4.2760     0.8040     0.4680 oh         1 28U      -0.655000
     10 C3           3.7470    -0.3030    -0.2330 c3         1 28U       0.217200
     11 C2           4.1510    -1.6130     0.4000 c2         1 28U      -0.254200
     12 C1           4.9400    -1.7570     1.4570 c2         1 28U      -0.306000
     13 C9          -2.2380     1.2540    -0.1710 c3         1 28U      -0.039200
     14 C11         -2.7790     0.2680     0.8780 c3         1 28U      -0.036200
     15 C12         -4.2500     0.0250     0.7130 c2         1 28U      -0.224200
     16 C14         -6.3140    -1.0180    -0.1670 c3         1 28U      -0.056400
     17 H1           4.0720     0.6830    -2.1500 hc         1 28U       0.044033
     18 H2           5.4230    -0.3170    -1.6090 hc         1 28U       0.044033
     19 H3           3.9630    -1.0740    -2.2450 hc         1 28U       0.044033
     20 H4           1.8400    -0.3880     0.7660 hc         1 28U       0.044200
     21 H5           1.8360    -1.1110    -0.8230 hc         1 28U       0.044200
     22 H6           1.9490     1.8930    -0.2500 hc         1 28U       0.050200
     23 H7           1.9590     1.1890    -1.8500 hc         1 28U       0.050200
     24 H8          -0.2990     0.3150    -1.6360 ha         1 28U       0.164000
     25 H11         -0.7960     3.4250     0.9690 hc         1 28U       0.039033
     26 H12         -0.8060     2.0600     2.0620 hc         1 28U       0.039033
     27 H13          0.6870     2.5190     1.2590 hc         1 28U       0.039033
     28 H15         -2.9770    -1.8250    -0.7490 hc         1 28U       0.038533
     29 H16         -4.3540    -2.9200    -0.6310 hc         1 28U       0.038533
     30 H17         -4.2710    -1.7610    -1.9400 hc         1 28U       0.038533
     31 H18          3.8930     0.8140     1.3520 ho         1 28U       0.441000
     32 H19          3.7330    -2.4970    -0.0740 ha         1 28U       0.171000
     33 H20          5.3910    -0.9160     1.9690 ha         1 28U       0.165000
     34 H21          5.1670    -2.7380     1.8520 ha         1 28U       0.165000
     35 H22         -2.8010     2.1910    -0.1000 hc         1 28U       0.045700
     36 H23         -2.4440     0.8440    -1.1640 hc         1 28U       0.045700
     37 H24         -2.2090    -0.6620     0.8040 hc         1 28U       0.043700
     38 H25         -2.5920     0.6570     1.8820 hc         1 28U       0.043700
     39 H26         -4.9020     0.7130     1.2460 ha         1 28U       0.166000
     40 H28         -6.6560    -2.0110     0.1380 hc         1 28U       0.038533
     41 H29         -6.8300    -0.2800     0.4460 hc         1 28U       0.038533
     42 H30         -6.6400    -0.8850    -1.2020 hc         1 28U       0.038533
@<TRIPOS>BOND
     1     1    10 1   
     2     1    17 1   
     3     1    18 1   
     4     1    19 1   
     5     2     3 1   
     6     2    10 1   
     7     2    20 1   
     8     2    21 1   
     9     3     4 1   
    10     3    22 1   
    11     3    23 1   
    12     4     5 2   
    13     4    24 1   
    14     5     6 1   
    15     5    13 1   
    16     6    25 1   
    17     6    26 1   
    18     6    27 1   
    19     7     8 1   
    20     7    15 2   
    21     7    16 1   
    22     8    28 1   
    23     8    29 1   
    24     8    30 1   
    25     9    10 1   
    26     9    31 1   
    27    10    11 1   
    28    11    12 2   
    29    11    32 1   
    30    12    33 1   
    31    12    34 1   
    32    13    14 1   
    33    13    35 1   
    34    13    36 1   
    35    14    15 1   
    36    14    37 1   
    37    14    38 1   
    38    15    39 1   
    39    16    40 1   
    40    16    41 1   
    41    16    42 1   
@<TRIPOS>SUBSTRUCTURE
     1 28U         1 TEMP              0 ****  ****    0 ROOT
