@<TRIPOS>MOLECULE
28U
   42    41     1     0     0
SMALL
No Charge or Current Charge


@<TRIPOS>ATOM
      1 C4           4.4140    -0.3530    -1.4910 c3         1 28U      -0.076100
      2 C5           2.2040    -0.2480    -0.1600 c3         1 28U      -0.099400
      3 C6           1.5400     0.8780    -0.9920 c3         1 28U      -0.034200
      4 C7           0.0250     0.8080    -0.9310 c2         1 28U      -0.224200
      5 C8          -0.7870     1.3580    -0.0080 c2         1 28U      -0.111400
      6 C10         -0.3220     2.1640     1.1990 c3         1 28U      -0.054900
      7 C13         -5.0190    -0.8210    -0.1620 c2         1 28U      -0.112400
      8 C15         -4.3450    -1.7400    -1.1710 c3         1 28U      -0.056400
      9 O16          4.1810     0.9890     0.4980 oh         1 28U      -0.655000
     10 C3           3.7610    -0.2320    -0.0940 c3         1 28U       0.217200
     11 C2           4.2660    -1.3350     0.8190 c2         1 28U      -0.254200
     12 C1           5.5210    -1.4700     1.2870 c2         1 28U      -0.306000
     13 C9          -2.3020     1.2350    -0.0950 c3         1 28U      -0.039200
     14 C11         -2.8820     0.1720     0.8640 c3         1 28U      -0.036200
     15 C12         -4.3810     0.0010     0.6920 c2         1 28U      -0.224200
     16 C14         -6.5330    -0.9200    -0.2160 c3         1 28U      -0.056400
     17 H1           4.1620     0.5020    -2.1280 hc         1 28U       0.044033
     18 H2           5.5070    -0.3930    -1.4100 hc         1 28U       0.044033
     19 H3           4.0800    -1.2680    -1.9950 hc         1 28U       0.044033
     20 H4           1.8110    -0.1970     0.8630 hc         1 28U       0.044200
     21 H5           1.8780    -1.2140    -0.5640 hc         1 28U       0.044200
     22 H6           1.8950     1.8550    -0.6440 hc         1 28U       0.050200
     23 H7           1.8590     0.8020    -2.0390 hc         1 28U       0.050200
     24 H8          -0.4100     0.2470    -1.7600 ha         1 28U       0.164000
     25 H11         -0.7140     3.1870     1.1620 hc         1 28U       0.039033
     26 H12         -0.6640     1.7110     2.1360 hc         1 28U       0.039033
     27 H13          0.7690     2.2380     1.2670 hc         1 28U       0.039033
     28 H15         -3.2550    -1.6340    -1.1840 hc         1 28U       0.038533
     29 H16         -4.5690    -2.7920    -0.9530 hc         1 28U       0.038533
     30 H17         -4.6970    -1.5300    -2.1870 hc         1 28U       0.038533
     31 H18          4.6290     0.7200     1.3270 ho         1 28U       0.441000
     32 H19          3.5080    -2.0720     1.0950 ha         1 28U       0.171000
     33 H20          6.3180    -0.7700     1.0300 ha         1 28U       0.165000
     34 H21          5.7980    -2.3000     1.9390 ha         1 28U       0.165000
     35 H22         -2.7790     2.2040     0.1010 hc         1 28U       0.045700
     36 H23         -2.5930     0.9620    -1.1170 hc         1 28U       0.045700
     37 H24         -2.3600    -0.7780     0.7000 hc         1 28U       0.043700
     38 H25         -2.6640     0.4550     1.9000 hc         1 28U       0.043700
     39 H26         -4.9620     0.6240     1.3740 ha         1 28U       0.166000
     40 H28         -6.8700    -1.9420    -0.0020 hc         1 28U       0.038533
     41 H29         -7.0110    -0.2570     0.5150 hc         1 28U       0.038533
     42 H30         -6.9120    -0.6430    -1.2070 hc         1 28U       0.038533
@<TRIPOS>BOND
     1     1    10 1   
     2     1    17 1   
     3     1    18 1   
     4     1    19 1   
     5     2     3 1   
     6     2    10 1   
     7     2    20 1   
     8     2    21 1   
     9     3     4 1   
    10     3    22 1   
    11     3    23 1   
    12     4     5 2   
    13     4    24 1   
    14     5     6 1   
    15     5    13 1   
    16     6    25 1   
    17     6    26 1   
    18     6    27 1   
    19     7     8 1   
    20     7    15 2   
    21     7    16 1   
    22     8    28 1   
    23     8    29 1   
    24     8    30 1   
    25     9    10 1   
    26     9    31 1   
    27    10    11 1   
    28    11    12 2   
    29    11    32 1   
    30    12    33 1   
    31    12    34 1   
    32    13    14 1   
    33    13    35 1   
    34    13    36 1   
    35    14    15 1   
    36    14    37 1   
    37    14    38 1   
    38    15    39 1   
    39    16    40 1   
    40    16    41 1   
    41    16    42 1   
@<TRIPOS>SUBSTRUCTURE
     1 28U         1 TEMP              0 ****  ****    0 ROOT
