@<TRIPOS>MOLECULE
28V
   59    61     1     0     0
SMALL
No Charge or Current Charge


@<TRIPOS>ATOM
      1 S1          -7.8140     0.6520     0.1240 s6         1 28V       1.185100
      2 O2          -9.0260    -0.0720     0.5080 o          1 28V      -0.524500
      3 O3          -7.6100     2.0390     0.5460 o          1 28V      -0.524500
      4 N4          -6.5640    -0.2340     0.7700 nu         1 28V      -0.868100
      5 C5          -5.1860    -0.1320     0.5620 ca         1 28V       0.232000
      6 C6          -4.5700     1.0420     0.0840 ca         1 28V      -0.112000
      7 C7          -3.1770     1.0890    -0.1070 ca         1 28V      -0.090000
      8 C8          -2.3730    -0.0300     0.1800 ca         1 28V      -0.045800
      9 C9          -2.9900    -1.2020     0.6620 ca         1 28V      -0.090000
     10 C10         -4.3830    -1.2470     0.8520 ca         1 28V      -0.112000
     11 C11         -0.8980     0.0550    -0.0370 ce         1 28V      -0.168200
     12 C12          0.0750    -0.8440     0.2880 cf         1 28V      -0.135200
     13 C13          1.5400    -0.7490     0.0840 ca         1 28V      -0.098800
     14 C14          2.3650    -1.9070     0.0690 ca         1 28V       0.135100
     15 C15          3.7900    -1.7980     0.0100 ca         1 28V      -0.073300
     16 C16          4.3340    -0.4920    -0.1160 ca         1 28V      -0.057000
     17 C17          3.5230     0.6530    -0.1520 ca         1 28V      -0.063800
     18 C18          2.1330     0.5190    -0.0360 ca         1 28V      -0.075000
     19 C19          4.1300     1.9810    -0.2740 cc         1 28V      -0.095400
     20 C20          5.2200     2.4650     0.6190 c          1 28V       0.536200
     21 O21          5.7180     1.8330     1.5410 o          1 28V      -0.540000
     22 N22          5.6260     3.7450     0.2990 ns         1 28V      -0.223900
     23 N24          5.1530     4.5630    -0.7000 nc         1 28V      -0.408300
     24 C25          4.1790     4.1030    -1.4860 cd         1 28V       0.339500
     25 C26          3.6280     2.7810    -1.2990 cd         1 28V      -0.240600
     26 C27          4.7340    -3.0500     0.0880 c3         1 28V       0.013300
     27 C28          6.2470    -2.6730     0.0620 c3         1 28V      -0.086100
     28 C29          4.4980    -3.8150     1.4220 c3         1 28V      -0.086100
     29 C30          4.4960    -4.0010    -1.1180 c3         1 28V      -0.086100
     30 O31          1.7680    -3.1510     0.1170 os         1 28V      -0.367100
     31 C32          0.9640    -3.6090    -0.9900 c3         1 28V       0.148900
     32 C33         -7.6040     0.5250    -1.6400 c3         1 28V      -0.382100
     33 H1          -6.9510    -1.1390     1.0010 hn         1 28V       0.488000
     34 H2          -5.1530     1.9280    -0.1380 ha         1 28V       0.129500
     35 H3          -2.7230     2.0060    -0.4760 ha         1 28V       0.120000
     36 H4          -2.4040    -2.0880     0.8890 ha         1 28V       0.120000
     37 H5          -4.8380    -2.1600     1.2250 ha         1 28V       0.129500
     38 H6          -0.5900     0.9720    -0.5380 ha         1 28V       0.173000
     39 H7          -0.2360    -1.7570     0.7950 ha         1 28V       0.187000
     40 H8           5.4040    -0.3300    -0.1910 ha         1 28V       0.134000
     41 H9           1.5210     1.4160    -0.0070 ha         1 28V       0.116000
     42 H10          6.3680     4.1160     0.8860 hn         1 28V       0.353500
     43 H11          3.8450     4.7840    -2.2580 h4         1 28V       0.047800
     44 H12          2.8430     2.4330    -1.9610 ha         1 28V       0.199000
     45 H13          6.5080    -2.0140     0.8990 hc         1 28V       0.037811
     46 H14          6.8780    -3.5670     0.1460 hc         1 28V       0.037811
     47 H15          6.5170    -2.1760    -0.8780 hc         1 28V       0.037811
     48 H16          3.4980    -4.2550     1.4800 hc         1 28V       0.037811
     49 H17          5.2140    -4.6380     1.5340 hc         1 28V       0.037811
     50 H18          4.6210    -3.1420     2.2790 hc         1 28V       0.037811
     51 H19          4.5090    -3.4410    -2.0610 hc         1 28V       0.037811
     52 H20          5.2750    -4.7710    -1.1710 hc         1 28V       0.037811
     53 H21          3.5420    -4.5300    -1.0440 hc         1 28V       0.037811
     54 H22          0.0780    -2.9830    -1.1390 h1         1 28V       0.038367
     55 H23          1.5460    -3.5990    -1.9200 h1         1 28V       0.038367
     56 H24          0.6240    -4.6370    -0.8110 h1         1 28V       0.038367
     57 H25         -6.6380     0.9700    -1.8970 h1         1 28V       0.103033
     58 H26         -7.6350    -0.5370    -1.9010 h1         1 28V       0.103033
     59 H27         -8.4290     1.0730    -2.1070 h1         1 28V       0.103033
@<TRIPOS>BOND
     1     1     2 2   
     2     1     3 2   
     3     1     4 1   
     4     1    32 1   
     5     4     5 1   
     6     4    33 1   
     7     5     6 ar  
     8     5    10 ar  
     9     6     7 ar  
    10     6    34 1   
    11     7     8 ar  
    12     7    35 1   
    13     8     9 ar  
    14     8    11 1   
    15     9    10 ar  
    16     9    36 1   
    17    10    37 1   
    18    11    12 2   
    19    11    38 1   
    20    12    13 1   
    21    12    39 1   
    22    13    14 ar  
    23    13    18 ar  
    24    14    15 ar  
    25    14    30 1   
    26    15    16 ar  
    27    15    26 1   
    28    16    17 ar  
    29    16    40 1   
    30    17    18 ar  
    31    17    19 1   
    32    18    41 1   
    33    19    20 1   
    34    19    25 2   
    35    20    21 2   
    36    20    22 1   
    37    22    23 1   
    38    22    42 1   
    39    23    24 2   
    40    24    25 1   
    41    24    43 1   
    42    25    44 1   
    43    26    27 1   
    44    26    28 1   
    45    26    29 1   
    46    27    45 1   
    47    27    46 1   
    48    27    47 1   
    49    28    48 1   
    50    28    49 1   
    51    28    50 1   
    52    29    51 1   
    53    29    52 1   
    54    29    53 1   
    55    30    31 1   
    56    31    54 1   
    57    31    55 1   
    58    31    56 1   
    59    32    57 1   
    60    32    58 1   
    61    32    59 1   
@<TRIPOS>SUBSTRUCTURE
     1 28V         1 TEMP              0 ****  ****    0 ROOT
