@<TRIPOS>MOLECULE
28W
   63    65     1     0     0
SMALL
bcc


@<TRIPOS>ATOM
      1 CAL         -5.5200    -2.3410     0.0470 ca         1 28W      -0.117000
      2 CAJ         -6.5250    -1.8180     0.8510 ca         1 28W      -0.132000
      3 CAI         -6.2000    -1.1450     2.0210 ca         1 28W      -0.126000
      4 CAK         -4.8650    -1.0000     2.3780 ca         1 28W      -0.132000
      5 CAM         -3.8620    -1.5270     1.5760 ca         1 28W      -0.117000
      6 CBB         -4.1820    -2.2070     0.4030 ca         1 28W      -0.112300
      7 CAQ         -3.1060    -2.8200    -0.4580 c3         1 28W       0.147300
      8 NAU         -1.9670    -1.9480    -0.6180 ns         1 28W      -0.562900
      9 CAZ         -0.6970    -2.3160    -0.4040 c          1 28W       0.686100
     10 OAE         -0.3590    -3.4370    -0.0590 o          1 28W      -0.592100
     11 CBI          0.3510    -1.2460    -0.7400 c3         1 28W       0.165700
     12 N            1.5830    -1.5630    -0.0490 n7         1 28W      -0.807200
     13 CA           2.7380    -0.7970    -0.4650 c3         1 28W       0.111500
     14 CB           3.9440    -1.2040     0.3750 c3         1 28W      -0.068400
     15 CG           5.2340    -0.4330     0.0930 c3         1 28W      -0.063700
     16 CD2          5.0740     1.0680     0.3150 c3         1 28W      -0.087600
     17 CD1          6.3590    -0.9820     0.9650 c3         1 28W      -0.087600
     18 C            3.0340    -0.9900    -1.9540 c          1 28W       0.626100
     19 O            3.3290    -2.0720    -2.4290 o          1 28W      -0.566100
     20 NAT          2.9260     0.1400    -2.6740 ns         1 28W      -0.457400
     21 OAG          2.9910     0.1030    -4.0330 oh         1 28W      -0.389100
     22 CBD         -0.0750     0.1510    -0.4190 cc         1 28W      -0.105400
     23 CBF         -0.3660     1.1960    -1.3480 ca         1 28W      -0.122800
     24 CAO         -0.4480     1.2600    -2.7450 ca         1 28W      -0.072000
     25 CAN         -0.7650     2.4590    -3.3440 ca         1 28W      -0.146000
     26 CBA         -1.0060     3.5980    -2.5570 ca         1 28W       0.054400
     27 CLH         -1.4090     5.0810    -3.3620 cl         1 28W      -0.103400
     28 CAP         -0.9340     3.5840    -1.1830 ca         1 28W      -0.142000
     29 CBE         -0.6000     2.3650    -0.5940 ca         1 28W      -0.035200
     30 NAW         -0.4300     2.0490     0.7180 na         1 28W      -0.161400
     31 CBC         -0.1270     0.7180     0.8260 cd         1 28W      -0.108300
     32 CAX          0.1240     0.0520     2.1270 c          1 28W       0.712300
     33 OAC         -0.3830    -1.0110     2.4250 o          1 28W      -0.527100
     34 NAS          0.9730     0.7360     2.9160 ns         1 28W      -0.464400
     35 OAF          1.1600     0.3570     4.2070 oh         1 28W      -0.376100
     36 H1          -5.7820    -2.8560    -0.8710 ha         1 28W       0.141000
     37 H2          -7.5600    -1.9290     0.5570 ha         1 28W       0.129500
     38 H3          -6.9800    -0.7340     2.6470 ha         1 28W       0.129000
     39 H4          -4.6020    -0.4740     3.2870 ha         1 28W       0.129500
     40 H5          -2.8250    -1.4040     1.8630 ha         1 28W       0.141000
     41 H6          -2.7550    -3.7500    -0.0090 h1         1 28W       0.064200
     42 H7          -3.5200    -3.0810    -1.4350 h1         1 28W       0.064200
     43 H8          -2.1540    -0.9930    -0.8830 hn         1 28W       0.320500
     44 H9           0.4480    -1.3150    -1.8390 h1         1 28W       0.054700
     45 H10          1.7690    -2.5570    -0.1210 hn         1 28W       0.414800
     46 H12          2.5210     0.2580    -0.2720 h1         1 28W       0.059700
     47 H13          3.6670    -1.0730     1.4260 hc         1 28W       0.060200
     48 H14          4.1250    -2.2740     0.2290 hc         1 28W       0.060200
     49 H15          5.5200    -0.5970    -0.9530 hc         1 28W       0.054700
     50 H16          6.0250     1.5850     0.1760 hc         1 28W       0.032700
     51 H17          4.3640     1.5210    -0.3780 hc         1 28W       0.032700
     52 H18          4.7260     1.2760     1.3290 hc         1 28W       0.032700
     53 H19          6.4860    -2.0570     0.8230 hc         1 28W       0.032700
     54 H20          7.3090    -0.5010     0.7280 hc         1 28W       0.032700
     55 H21          6.1550    -0.8080     2.0240 hc         1 28W       0.032700
     56 H22          2.5330     0.9890    -2.2920 hn         1 28W       0.337500
     57 H23          3.8930     0.3560    -4.2680 ho         1 28W       0.406000
     58 H24         -0.2740     0.3830    -3.3560 ha         1 28W       0.152000
     59 H25         -0.8320     2.5270    -4.4210 ha         1 28W       0.154000
     60 H26         -1.1210     4.4700    -0.5910 ha         1 28W       0.153000
     61 H27         -0.6210     2.6690     1.4890 hn         1 28W       0.309700
     62 H28          1.3780     1.6270     2.6630 hn         1 28W       0.336500
     63 H29          1.9460    -0.2050     4.2160 ho         1 28W       0.409000
@<TRIPOS>BOND
     1     1     2 ar  
     2     1     6 ar  
     3     1    36 1   
     4     2     3 ar  
     5     2    37 1   
     6     3     4 ar  
     7     3    38 1   
     8     4     5 ar  
     9     4    39 1   
    10     5     6 ar  
    11     5    40 1   
    12     6     7 1   
    13     7     8 1   
    14     7    41 1   
    15     7    42 1   
    16     8     9 1   
    17     8    43 1   
    18     9    10 2   
    19     9    11 1   
    20    11    12 1   
    21    11    22 1   
    22    11    44 1   
    23    12    13 1   
    24    12    45 1   
    25    13    14 1   
    26    13    18 1   
    27    13    46 1   
    28    14    15 1   
    29    14    47 1   
    30    14    48 1   
    31    15    16 1   
    32    15    17 1   
    33    15    49 1   
    34    16    50 1   
    35    16    51 1   
    36    16    52 1   
    37    17    53 1   
    38    17    54 1   
    39    17    55 1   
    40    18    19 2   
    41    18    20 1   
    42    20    21 1   
    43    20    56 1   
    44    21    57 1   
    45    22    23 1   
    46    22    31 2   
    47    23    24 ar  
    48    23    29 ar  
    49    24    25 ar  
    50    24    58 1   
    51    25    26 ar  
    52    25    59 1   
    53    26    27 1   
    54    26    28 ar  
    55    28    29 ar  
    56    28    60 1   
    57    29    30 1   
    58    30    31 1   
    59    30    61 1   
    60    31    32 1   
    61    32    33 2   
    62    32    34 1   
    63    34    35 1   
    64    34    62 1   
    65    35    63 1   
@<TRIPOS>SUBSTRUCTURE
     1 28W         1 TEMP              0 ****  ****    0 ROOT
