@<TRIPOS>MOLECULE
28W
   63    65     1     0     0
SMALL
No Charge or Current Charge


@<TRIPOS>ATOM
      1 CAL         -5.2900    -1.7130     0.1740 ca         1 28W      -0.099000
      2 CAJ         -6.2120    -0.9110     0.8690 ca         1 28W      -0.114000
      3 CAI         -5.9470    -0.5170     2.1920 ca         1 28W      -0.108000
      4 CAK         -4.7580    -0.9240     2.8190 ca         1 28W      -0.114000
      5 CAM         -3.8360    -1.7270     2.1260 ca         1 28W      -0.099000
      6 CBB         -4.0970    -2.1270     0.8000 ca         1 28W      -0.112300
      7 CAQ         -3.0860    -2.9780     0.0500 c3         1 28W       0.147300
      8 NAU         -1.9500    -2.1620    -0.3630 ns         1 28W      -0.495900
      9 CAZ         -0.6550    -2.6170    -0.5010 c          1 28W       0.619100
     10 OAE         -0.3750    -3.8080    -0.3920 o          1 28W      -0.592100
     11 CBI          0.4130    -1.5070    -0.8290 c3         1 28W       0.165700
     12 N            1.7930    -1.7960    -0.3090 n7         1 28W      -0.862400
     13 CA           2.8910    -0.8700    -0.7360 c3         1 28W       0.111500
     14 CB           4.1620    -1.2040     0.0900 c3         1 28W      -0.068400
     15 CG           5.3880    -0.2770    -0.1510 c3         1 28W      -0.063700
     16 CD2          5.1010     1.2030     0.2020 c3         1 28W      -0.087600
     17 CD1          6.6240    -0.7900     0.6220 c3         1 28W      -0.087600
     18 C            3.1780    -0.9030    -2.2790 c          1 28W       0.559100
     19 O            3.4460    -1.9390    -2.8800 o          1 28W      -0.566100
     20 NAT          3.0920     0.3270    -2.9270 ns         1 28W      -0.390400
     21 OAG          3.0640     0.4060    -4.3720 oh         1 28W      -0.428100
     22 CBD         -0.0080    -0.1010    -0.4230 cc         1 28W      -0.105400
     23 CBF         -0.2000     0.9880    -1.3470 ca         1 28W      -0.122800
     24 CAO         -0.1050     1.0240    -2.7490 ca         1 28W      -0.054000
     25 CAN         -0.3500     2.2510    -3.4000 ca         1 28W      -0.128000
     26 CBA         -0.6890     3.3980    -2.6500 ca         1 28W       0.146000
     27 ClH         -0.9950     4.9220    -3.4730 cl         1 28W      -0.195000
     28 CAP         -0.7880     3.3280    -1.2470 ca         1 28W      -0.124000
     29 CBE         -0.5350     2.0970    -0.6280 ca         1 28W      -0.035200
     30 NAW         -0.5900     1.8120     0.7190 na         1 28W      -0.211700
     31 CBC         -0.2820     0.4260     0.8550 cd         1 28W      -0.108300
     32 CAX         -0.2540    -0.3590     2.1410 c          1 28W       0.645300
     33 OAC          0.0030    -1.5520     2.2350 o          1 28W      -0.527100
     34 NAS         -0.5710     0.4020     3.2650 ns         1 28W      -0.397400
     35 OAF         -0.8490    -0.2320     4.5400 oh         1 28W      -0.415100
     36 H1          -5.5020    -2.0090    -0.8510 ha         1 28W       0.123000
     37 H2          -7.1320    -0.5950     0.3820 ha         1 28W       0.111500
     38 H3          -6.6610     0.1050     2.7280 ha         1 28W       0.111000
     39 H4          -4.5490    -0.6170     3.8420 ha         1 28W       0.111500
     40 H5          -2.9160    -2.0360     2.6180 ha         1 28W       0.123000
     41 H6          -2.7390    -3.7910     0.7030 h1         1 28W       0.064200
     42 H7          -3.5470    -3.4270    -0.8390 h1         1 28W       0.064200
     43 H8          -2.0910    -1.1650    -0.4680 hn         1 28W       0.320500
     44 H9           0.4520    -1.5240    -1.9250 h1         1 28W       0.054700
     45 H10          2.0410    -2.7550    -0.5930 hn         1 28W       0.470000
     46 H12          2.6020     0.1590    -0.4850 h1         1 28W       0.059700
     47 H13          3.9040    -1.1760     1.1560 hc         1 28W       0.060200
     48 H14          4.4550    -2.2390    -0.1280 hc         1 28W       0.060200
     49 H15          5.6450    -0.3170    -1.2170 hc         1 28W       0.054700
     50 H16          6.0010     1.8140     0.0650 hc         1 28W       0.032700
     51 H17          4.3190     1.6230    -0.4400 hc         1 28W       0.032700
     52 H18          4.7790     1.3000     1.2460 hc         1 28W       0.032700
     53 H19          6.8650    -1.8200     0.3310 hc         1 28W       0.032700
     54 H20          7.5020    -0.1670     0.4100 hc         1 28W       0.032700
     55 H21          6.4450    -0.7720     1.7040 hc         1 28W       0.032700
     56 H22          2.7020     1.1260    -2.4270 hn         1 28W       0.337500
     57 H23          3.7450     1.0880    -4.5820 ho         1 28W       0.445000
     58 H24          0.1510     0.1400    -3.3280 ha         1 28W       0.134000
     59 H25         -0.2810     2.3140    -4.4830 ha         1 28W       0.136000
     60 H26         -1.0540     4.2070    -0.6660 ha         1 28W       0.135000
     61 H27         -0.8050     2.4760     1.4550 hn         1 28W       0.360000
     62 H28         -0.9490     1.3370     3.1480 hn         1 28W       0.336500
     63 H29         -0.2810     0.2630     5.1770 ho         1 28W       0.448000
@<TRIPOS>BOND
     1     1     2 ar  
     2     1     6 ar  
     3     1    36 1   
     4     2     3 ar  
     5     2    37 1   
     6     3     4 ar  
     7     3    38 1   
     8     4     5 ar  
     9     4    39 1   
    10     5     6 ar  
    11     5    40 1   
    12     6     7 1   
    13     7     8 1   
    14     7    41 1   
    15     7    42 1   
    16     8     9 1   
    17     8    43 1   
    18     9    10 2   
    19     9    11 1   
    20    11    12 1   
    21    11    22 1   
    22    11    44 1   
    23    12    13 1   
    24    12    45 1   
    25    13    14 1   
    26    13    18 1   
    27    13    46 1   
    28    14    15 1   
    29    14    47 1   
    30    14    48 1   
    31    15    16 1   
    32    15    17 1   
    33    15    49 1   
    34    16    50 1   
    35    16    51 1   
    36    16    52 1   
    37    17    53 1   
    38    17    54 1   
    39    17    55 1   
    40    18    19 2   
    41    18    20 1   
    42    20    21 1   
    43    20    56 1   
    44    21    57 1   
    45    22    23 1   
    46    22    31 2   
    47    23    24 ar  
    48    23    29 ar  
    49    24    25 ar  
    50    24    58 1   
    51    25    26 ar  
    52    25    59 1   
    53    26    27 1   
    54    26    28 ar  
    55    28    29 ar  
    56    28    60 1   
    57    29    30 1   
    58    30    31 1   
    59    30    61 1   
    60    31    32 1   
    61    32    33 2   
    62    32    34 1   
    63    34    35 1   
    64    34    62 1   
    65    35    63 1   
@<TRIPOS>SUBSTRUCTURE
     1 28W         1 TEMP              0 ****  ****    0 ROOT
