@<TRIPOS>MOLECULE
28Y
   18    20     1     0     0
SMALL
No Charge or Current Charge


@<TRIPOS>ATOM
      1 C4          -0.4570     0.9010    -0.0100 cc         1 28Y       0.398500
      2 C5          -1.2760    -0.1900    -0.0050 cd         1 28Y      -0.319600
      3 C6          -0.8280    -1.6070     0.0010 c          1 28Y       0.628600
      4 C8          -2.3970     1.7600    -0.0130 cd         1 28Y       0.440400
      5 N1           0.5280    -1.7400     0.0000 ns         1 28Y      -0.467400
      6 N2           2.6790    -0.6940    -0.0060 nc         1 28Y      -0.698000
      7 N3           0.8930     0.6040    -0.0100 na         1 28Y      -0.164000
      8 O6          -1.5820    -2.5660     0.0060 o          1 28Y      -0.535000
      9 N7          -2.5510     0.3740    -0.0060 na         1 28Y      -0.244500
     10 N9          -1.1060     2.0930    -0.0150 nc         1 28Y      -0.675000
     11 CAD          1.9660     1.4720    -0.0150 cd         1 28Y      -0.199000
     12 CAB          3.0540     0.6310    -0.0130 cc         1 28Y       0.257900
     13 C2           1.3620    -0.6770    -0.0050 cd         1 28Y       0.543400
     14 H1          -3.2450     2.4360    -0.0150 h5         1 28Y       0.069100
     15 H2           0.8990    -2.6770     0.0040 hn         1 28Y       0.359500
     16 H3          -3.4410    -0.1110    -0.0030 hn         1 28Y       0.381000
     17 H5           1.8880     2.5530    -0.0200 h4         1 28Y       0.178000
     18 H6           4.1030     0.9000    -0.0150 h4         1 28Y       0.045100
@<TRIPOS>BOND
     1     1     2 2   
     2     1     7 1   
     3     1    10 1   
     4     2     3 1   
     5     2     9 1   
     6     3     5 1   
     7     3     8 2   
     8     4     9 1   
     9     4    10 2   
    10     4    14 1   
    11     5    13 1   
    12     5    15 1   
    13     6    12 1   
    14     6    13 2   
    15     7    11 1   
    16     7    13 1   
    17     9    16 1   
    18    11    12 2   
    19    11    17 1   
    20    12    18 1   
@<TRIPOS>SUBSTRUCTURE
     1 28Y         1 TEMP              0 ****  ****    0 ROOT
