@<TRIPOS>MOLECULE
28Y
   18    20     1     0     0
SMALL
abcg2


@<TRIPOS>ATOM
      1 C4          -0.4500     0.8690    -0.0110 cc         1 28Y       0.398500
      2 C5          -1.3060    -0.2040    -0.0050 cd         1 28Y      -0.319600
      3 C6          -0.8900    -1.5810     0.0020 c          1 28Y       0.628600
      4 C8          -2.3760     1.6910    -0.0110 cd         1 28Y       0.440400
      5 N1           0.4870    -1.6830     0.0000 ns         1 28Y      -0.467400
      6 N2           2.6670    -0.6870    -0.0050 nc         1 28Y      -0.698000
      7 N3           0.9020     0.6490    -0.0110 na         1 28Y      -0.164000
      8 O6          -1.6210    -2.5560     0.0070 o          1 28Y      -0.535000
      9 N7          -2.5490     0.3640    -0.0050 na         1 28Y      -0.244500
     10 N9          -1.1010     2.0400    -0.0150 nc         1 28Y      -0.675000
     11 CAD          2.0060     1.4760    -0.0160 cd         1 28Y      -0.199000
     12 CAB          3.0690     0.6270    -0.0120 cc         1 28Y       0.257900
     13 C2           1.3670    -0.6320    -0.0050 cd         1 28Y       0.543400
     14 H1          -3.2060     2.3780    -0.0150 h5         1 28Y       0.069100
     15 H2           0.8880    -2.6120     0.0020 hn         1 28Y       0.359500
     16 H3          -3.4350    -0.1200    -0.0040 hn         1 28Y       0.381000
     17 H5           1.9230     2.5480    -0.0210 h4         1 28Y       0.178000
     18 H6           4.1140     0.8930    -0.0140 h4         1 28Y       0.045100
@<TRIPOS>BOND
     1     1     2 2   
     2     1     7 1   
     3     1    10 1   
     4     2     3 1   
     5     2     9 1   
     6     3     5 1   
     7     3     8 2   
     8     4     9 1   
     9     4    10 2   
    10     4    14 1   
    11     5    13 1   
    12     5    15 1   
    13     6    12 1   
    14     6    13 2   
    15     7    11 1   
    16     7    13 1   
    17     9    16 1   
    18    11    12 2   
    19    11    17 1   
    20    12    18 1   
@<TRIPOS>SUBSTRUCTURE
     1 28Y         1 TEMP              0 ****  ****    0 ROOT
