@<TRIPOS>MOLECULE
28Z
   64    66     1     0     0
SMALL
abcg2


@<TRIPOS>ATOM
      1 O4           9.4170    -1.1980    -1.4910 o          1 28Z      -0.490000
      2 C4           9.4010    -0.0830    -1.0150 c          1 28Z       0.491500
      3 C4A          8.3530     0.4610    -0.1520 ca         1 28Z       0.148500
      4 N3          10.4160     0.8190    -1.2500 ns         1 28Z      -0.462400
      5 C8A          8.4790     1.7780     0.3260 ca         1 28Z       0.319000
      6 N5           7.3200    -0.3160     0.1520 nb         1 28Z      -0.551000
      7 C2          10.4550     2.0890    -0.7410 cc         1 28Z       0.745800
      8 N8           7.5240     2.2800     1.1270 nb         1 28Z      -0.120000
      9 N1           9.5210     2.5800     0.0290 nd         1 28Z      -0.774700
     10 C6           6.3910     0.1840     0.9370 ca         1 28Z       0.247300
     11 N2          11.5080     2.8320    -1.0690 nv         1 28Z      -1.065200
     12 C7           6.5130     1.4990     1.4200 ca         1 28Z       0.093900
     13 C9           5.2050    -0.6610     1.2920 c3         1 28Z       0.201500
     14 N10          4.0870    -0.3390     0.4370 nu         1 28Z      -0.999200
     15 CBH          2.8450    -0.8580     0.6120 ca         1 28Z       0.319000
     16 CAL          2.5850    -1.8650     1.5560 ca         1 28Z      -0.211000
     17 CAK          1.7690    -0.3950    -0.1680 ca         1 28Z      -0.211000
     18 CAN          1.3070    -2.3700     1.7060 ca         1 28Z      -0.029000
     19 CAM          0.5040    -0.9180    -0.0090 ca         1 28Z      -0.029000
     20 CBI          0.2410    -1.9230     0.9290 ca         1 28Z      -0.154600
     21 CBF         -1.1070    -2.5050     1.1660 c          1 28Z       0.605700
     22 OAF         -1.3510    -3.1320     2.1930 o          1 28Z      -0.640100
     23 NBA         -2.0400    -2.2800     0.2230 ns         1 28Z      -0.428900
     24 CBO         -3.3370    -2.9120     0.2700 c3         1 28Z      -0.051300
     25 CBD         -3.2940    -4.4120    -0.1280 c          1 28Z       0.717000
     26 OAI         -2.2390    -4.8530    -0.6110 o          1 28Z      -0.738000
     27 CAS         -4.3190    -2.1490    -0.6180 c3         1 28Z      -0.060400
     28 CAQ         -4.5420    -0.7140    -0.1620 c3         1 28Z      -0.163400
     29 CBE         -5.5670     0.0210    -0.9990 c          1 28Z       0.600100
     30 OAE         -5.7620    -0.2500    -2.1780 o          1 28Z      -0.651100
     31 OAD         -4.3570    -5.0360     0.0670 o          1 28Z      -0.738000
     32 N           -6.2520     0.9770    -0.3530 ns         1 28Z      -0.447900
     33 CA          -7.0780     1.9360    -1.0500 c3         1 28Z      -0.039300
     34 C           -6.2510     2.9080    -1.9310 c          1 28Z       0.718000
     35 O           -5.0210     2.9500    -1.7550 o          1 28Z      -0.753500
     36 CB          -7.9300     2.7170    -0.0490 c3         1 28Z      -0.054400
     37 CG          -8.8700     1.8440     0.7690 c3         1 28Z      -0.200400
     38 CD          -9.8380     2.6000     1.6980 c          1 28Z       0.711000
     39 OE1         -9.8440     3.8460     1.6490 o          1 28Z      -0.769000
     40 OE2        -10.5560     1.8880     2.4320 o          1 28Z      -0.769000
     41 OXT         -6.9200     3.5890    -2.7340 o          1 28Z      -0.753500
     42 H4          11.1780     0.5000    -1.8360 hn         1 28Z       0.318500
     43 H2          12.2610     2.4900    -1.6410 hn         1 28Z       0.508500
     44 H3          11.5770     3.7670    -0.7050 hn         1 28Z       0.508500
     45 H1           5.7480     1.9080     2.0730 h4         1 28Z       0.044100
     46 H5           5.4840    -1.7140     1.1920 h1         1 28Z       0.052700
     47 H6           4.9460    -0.4960     2.3450 h1         1 28Z       0.052700
     48 H7           4.1860     0.4260    -0.2090 hn         1 28Z       0.483000
     49 H10          3.3780    -2.2570     2.1770 ha         1 28Z       0.095500
     50 H8           1.9350     0.3910    -0.8940 ha         1 28Z       0.095500
     51 H11          1.1400    -3.1400     2.4480 ha         1 28Z       0.130500
     52 H9          -0.2900    -0.5060    -0.6190 ha         1 28Z       0.130500
     53 H12         -1.7260    -1.9820    -0.6880 hn         1 28Z       0.297500
     54 H13         -3.6970    -2.8550     1.3010 h1         1 28Z       0.063700
     55 H15         -3.9670    -2.1630    -1.6540 hc         1 28Z       0.058700
     56 H16         -5.2640    -2.6920    -0.6050 hc         1 28Z       0.058700
     57 H17         -4.8330    -0.6990     0.8920 hc         1 28Z       0.041700
     58 H18         -3.6080    -0.1450    -0.2200 hc         1 28Z       0.041700
     59 H19         -5.9500     1.2140     0.5790 hn         1 28Z       0.289500
     60 H20         -7.7560     1.3830    -1.7070 h1         1 28Z       0.050700
     61 H22         -7.2740     3.2920     0.6150 hc         1 28Z       0.043200
     62 H23         -8.5100     3.4500    -0.6100 hc         1 28Z       0.043200
     63 H24         -9.4660     1.2220     0.0910 hc         1 28Z       0.015200
     64 H25         -8.3040     1.1320     1.3790 hc         1 28Z       0.015200
@<TRIPOS>BOND
     1     1     2 2   
     2     2     3 1   
     3     2     4 1   
     4     3     5 ar  
     5     3     6 ar  
     6     4     7 1   
     7     4    42 1   
     8     5     8 ar  
     9     5     9 1   
    10     6    10 ar  
    11     7     9 2   
    12     7    11 1   
    13     8    12 ar  
    14    10    12 ar  
    15    10    13 1   
    16    11    43 1   
    17    11    44 1   
    18    12    45 1   
    19    13    14 1   
    20    13    46 1   
    21    13    47 1   
    22    14    15 1   
    23    14    48 1   
    24    15    16 ar  
    25    15    17 ar  
    26    16    18 ar  
    27    16    49 1   
    28    17    19 ar  
    29    17    50 1   
    30    18    20 ar  
    31    18    51 1   
    32    19    20 ar  
    33    19    52 1   
    34    20    21 1   
    35    21    22 2   
    36    21    23 1   
    37    23    24 1   
    38    23    53 1   
    39    24    25 1   
    40    24    27 1   
    41    24    54 1   
    42    25    26 1   
    43    25    31 1   
    44    27    28 1   
    45    27    55 1   
    46    27    56 1   
    47    28    29 1   
    48    28    57 1   
    49    28    58 1   
    50    29    30 2   
    51    29    32 1   
    52    32    33 1   
    53    32    59 1   
    54    33    34 1   
    55    33    36 1   
    56    33    60 1   
    57    34    35 1   
    58    34    41 1   
    59    36    37 1   
    60    36    61 1   
    61    36    62 1   
    62    37    38 1   
    63    37    63 1   
    64    37    64 1   
    65    38    39 1   
    66    38    40 1   
@<TRIPOS>SUBSTRUCTURE
     1 28Z         1 TEMP              0 ****  ****    0 ROOT
