@<TRIPOS>MOLECULE
28Z
   64    66     1     0     0
SMALL
No Charge or Current Charge


@<TRIPOS>ATOM
      1 O4           8.1580    -1.5930    -2.3350 o          1 28Z      -0.490000
      2 C4           8.8070    -0.7100    -1.7880 c          1 28Z       0.491500
      3 C4A          8.3320     0.1090    -0.6200 ca         1 28Z       0.148500
      4 N3          10.0530    -0.3900    -2.2120 ns         1 28Z      -0.462400
      5 C8A          9.2190     1.1090    -0.1100 ca         1 28Z       0.319000
      6 N5           7.0920    -0.1200    -0.0940 nb         1 28Z      -0.551000
      7 C2          10.8040     0.5740    -1.6560 cc         1 28Z       0.745800
      8 N8           8.8150     1.8630     0.9390 nb         1 28Z      -0.120000
      9 N1          10.5070     1.3510    -0.6520 nd         1 28Z      -0.774700
     10 C6           6.7230     0.6570     0.9570 ca         1 28Z       0.247300
     11 N2          11.9910     0.7610    -2.1840 nv         1 28Z      -1.065200
     12 C7           7.5910     1.6420     1.4640 ca         1 28Z       0.093900
     13 C9           5.3340     0.4320     1.5830 c3         1 28Z       0.201500
     14 N10          4.2710     0.1390     0.5860 nu         1 28Z      -0.999200
     15 CBH          2.9410    -0.1740     0.8490 ca         1 28Z       0.319000
     16 CAL          2.3290     0.1790     2.0610 ca         1 28Z      -0.211000
     17 CAK          2.1980    -0.8510    -0.1250 ca         1 28Z      -0.211000
     18 CAN          0.9830    -0.1480     2.2990 ca         1 28Z      -0.029000
     19 CAM          0.8500    -1.1820     0.1030 ca         1 28Z      -0.029000
     20 CBI          0.2240    -0.8350     1.3250 ca         1 28Z      -0.154600
     21 CBF         -1.2260    -1.1710     1.6150 c          1 28Z       0.605700
     22 OAF         -1.7630    -0.8570     2.6700 o          1 28Z      -0.640100
     23 NBA         -1.9110    -1.8550     0.6300 ns         1 28Z      -0.428900
     24 CBO         -3.3380    -2.2590     0.6870 c3         1 28Z      -0.051300
     25 CBD         -3.5120    -3.6900     0.0940 c          1 28Z       0.717000
     26 OAI         -2.9990    -3.9390    -0.9900 o          1 28Z      -0.738000
     27 CAS         -4.2650    -1.2390    -0.0260 c3         1 28Z      -0.060400
     28 CAQ         -4.2530     0.1820     0.5910 c3         1 28Z      -0.163400
     29 CBE         -5.2720     1.0990    -0.0960 c          1 28Z       0.600100
     30 OAE         -5.0860     1.5650    -1.2120 o          1 28Z      -0.651100
     31 OAD         -4.0720    -4.5350     0.7780 o          1 28Z      -0.738000
     32 N           -6.3890     1.3890     0.6600 ns         1 28Z      -0.447900
     33 CA          -7.5370     2.2220     0.2240 c3         1 28Z      -0.039300
     34 C           -7.9950     3.1610     1.3840 c          1 28Z       0.718000
     35 O           -8.2280     2.6690     2.4810 o          1 28Z      -0.753500
     36 CB          -8.7180     1.3630    -0.3050 c3         1 28Z      -0.054400
     37 CG          -8.3890     0.5020    -1.5540 c3         1 28Z      -0.200400
     38 CD          -9.6600    -0.2020    -2.0620 c          1 28Z       0.711000
     39 OE1        -10.3640     0.3850    -2.8690 o          1 28Z      -0.769000
     40 OE2         -9.9390    -1.2980    -1.6010 o          1 28Z      -0.769000
     41 OXT         -8.0230     4.3660     1.1770 o          1 28Z      -0.753500
     42 H4          10.4090    -0.8930    -3.0090 hn         1 28Z       0.318500
     43 H2          12.4540    -0.0630    -2.5470 hn         1 28Z       0.508500
     44 H3          12.5800     1.3650    -1.6230 hn         1 28Z       0.508500
     45 H1           7.3040     2.2680     2.3070 h4         1 28Z       0.044100
     46 H5           5.4130    -0.4020     2.2950 h1         1 28Z       0.052700
     47 H6           5.0630     1.3260     2.1610 h1         1 28Z       0.052700
     48 H7           4.6160    -0.1760    -0.3240 hn         1 28Z       0.483000
     49 H10          2.8870     0.7100     2.8270 ha         1 28Z       0.095500
     50 H8           2.6620    -1.1250    -1.0690 ha         1 28Z       0.095500
     51 H11          0.5310     0.1360     3.2470 ha         1 28Z       0.130500
     52 H9           0.3120    -1.7080    -0.6820 ha         1 28Z       0.130500
     53 H12         -1.3900    -2.1060    -0.2000 hn         1 28Z       0.297500
     54 H13         -3.6400    -2.3190     1.7400 h1         1 28Z       0.063700
     55 H15         -3.9870    -1.1760    -1.0860 hc         1 28Z       0.058700
     56 H16         -5.2920    -1.6250     0.0040 hc         1 28Z       0.058700
     57 H17         -4.4860     0.0960     1.6590 hc         1 28Z       0.041700
     58 H18         -3.2540     0.6130     0.4620 hc         1 28Z       0.041700
     59 H19         -6.4270     0.9800     1.5860 hn         1 28Z       0.289500
     60 H20         -7.2000     2.8730    -0.5930 h1         1 28Z       0.050700
     61 H22         -9.0780     0.7080     0.4990 hc         1 28Z       0.043200
     62 H23         -9.5470     2.0360    -0.5520 hc         1 28Z       0.043200
     63 H24         -8.0120     1.2030    -2.3090 hc         1 28Z       0.015200
     64 H25         -7.6480    -0.2380    -1.2290 hc         1 28Z       0.015200
@<TRIPOS>BOND
     1     1     2 2   
     2     2     3 1   
     3     2     4 1   
     4     3     5 ar  
     5     3     6 ar  
     6     4     7 1   
     7     4    42 1   
     8     5     8 ar  
     9     5     9 1   
    10     6    10 ar  
    11     7     9 2   
    12     7    11 1   
    13     8    12 ar  
    14    10    12 ar  
    15    10    13 1   
    16    11    43 1   
    17    11    44 1   
    18    12    45 1   
    19    13    14 1   
    20    13    46 1   
    21    13    47 1   
    22    14    15 1   
    23    14    48 1   
    24    15    16 ar  
    25    15    17 ar  
    26    16    18 ar  
    27    16    49 1   
    28    17    19 ar  
    29    17    50 1   
    30    18    20 ar  
    31    18    51 1   
    32    19    20 ar  
    33    19    52 1   
    34    20    21 1   
    35    21    22 2   
    36    21    23 1   
    37    23    24 1   
    38    23    53 1   
    39    24    25 1   
    40    24    27 1   
    41    24    54 1   
    42    25    26 1   
    43    25    31 1   
    44    27    28 1   
    45    27    55 1   
    46    27    56 1   
    47    28    29 1   
    48    28    57 1   
    49    28    58 1   
    50    29    30 2   
    51    29    32 1   
    52    32    33 1   
    53    32    59 1   
    54    33    34 1   
    55    33    36 1   
    56    33    60 1   
    57    34    35 1   
    58    34    41 1   
    59    36    37 1   
    60    36    61 1   
    61    36    62 1   
    62    37    38 1   
    63    37    63 1   
    64    37    64 1   
    65    38    39 1   
    66    38    40 1   
@<TRIPOS>SUBSTRUCTURE
     1 28Z         1 TEMP              0 ****  ****    0 ROOT
