@<TRIPOS>MOLECULE
290
   17    18     1     0     0
SMALL
bcc


@<TRIPOS>ATOM
      1 C4          -0.5250     0.8840    -0.0090 cc         1 290       0.011000
      2 C5          -0.7510    -0.4770    -0.0050 cd         1 290       0.115000
      3 C6           0.3790    -1.3170     0.0250 cd         1 290       0.514300
      4 C8          -2.6540     0.4480    -0.0460 cc         1 290       0.407400
      5 N1           1.5850    -0.8050     0.0490 nc         1 290      -0.679100
      6 N3           0.7140     1.3990     0.0120 ns         1 290      -0.456100
      7 C2           1.8140     0.5450     0.0400 c          1 290       0.847900
      8 C61          0.2220    -2.7990     0.0160 c3         1 290      -0.138400
      9 N9          -1.7330     1.4700    -0.0350 na         1 290      -0.337900
     10 N7          -2.1030    -0.7240    -0.0280 nd         1 290      -0.604000
     11 H8          -3.7120     0.6560    -0.0660 h5         1 290       0.065100
     12 HN3          0.8750     2.3980     0.0050 hn         1 290       0.334500
     13 H61         -0.1230    -3.1280    -0.9660 hc         1 290       0.067700
     14 H61A         1.1660    -3.2920     0.2350 hc         1 290       0.067700
     15 H61B        -0.5290    -3.1160     0.7390 hc         1 290       0.067700
     16 HN9         -1.9400     2.4580    -0.0420 hn         1 290       0.314700
     17 O2           2.9380     1.0200     0.0570 o          1 290      -0.594500
@<TRIPOS>BOND
     1     1     2 2   
     2     1     6 1   
     3     1     9 1   
     4     2     3 1   
     5     2    10 1   
     6     3     5 2   
     7     3     8 1   
     8     4     9 1   
     9     4    10 2   
    10     4    11 1   
    11     5     7 1   
    12     6     7 1   
    13     6    12 1   
    14     7    17 2   
    15     8    13 1   
    16     8    14 1   
    17     8    15 1   
    18     9    16 1   
@<TRIPOS>SUBSTRUCTURE
     1 290         1 TEMP              0 ****  ****    0 ROOT
