@<TRIPOS>MOLECULE
290
   17    18     1     0     0
SMALL
No Charge or Current Charge


@<TRIPOS>ATOM
      1 C4          -0.5480     0.8810    -0.0020 cc         1 290       0.025600
      2 C5          -0.7930    -0.4490     0.0050 cd         1 290       0.049700
      3 C6           0.3640    -1.3300     0.0040 cd         1 290       0.514300
      4 C8          -2.7230     0.5030     0.0060 cc         1 290       0.407400
      5 N1           1.5970    -0.8100    -0.0060 nc         1 290      -0.679100
      6 N3           0.7300     1.3700    -0.0100 ns         1 290      -0.502600
      7 C2           1.8290     0.5550    -0.0130 c          1 290       0.705400
      8 C61          0.2580    -2.8290     0.0050 c3         1 290      -0.138400
      9 N9          -1.7640     1.5010    -0.0000 na         1 290      -0.337500
     10 N7          -2.1550    -0.7050     0.0090 nd         1 290      -0.604000
     11 H8          -3.7860     0.7160     0.0090 h5         1 290       0.065100
     12 HN3          0.9240     2.3660    -0.0150 hn         1 290       0.448000
     13 H61          0.2920    -3.2180    -1.0180 hc         1 290       0.067700
     14 H61A         1.0770    -3.2870     0.5720 hc         1 290       0.067700
     15 H61B        -0.6830    -3.1550     0.4600 hc         1 290       0.067700
     16 HN9         -1.9490     2.4960    -0.0040 hn         1 290       0.365000
     17 O2           2.9530     1.0170    -0.0210 o          1 290      -0.519000
@<TRIPOS>BOND
     1     1     2 2   
     2     1     6 1   
     3     1     9 1   
     4     2     3 1   
     5     2    10 1   
     6     3     5 2   
     7     3     8 1   
     8     4     9 1   
     9     4    10 2   
    10     4    11 1   
    11     5     7 1   
    12     6     7 1   
    13     6    12 1   
    14     7    17 2   
    15     8    13 1   
    16     8    14 1   
    17     8    15 1   
    18     9    16 1   
@<TRIPOS>SUBSTRUCTURE
     1 290         1 TEMP              0 ****  ****    0 ROOT
