@<TRIPOS>MOLECULE
291
   39    39     1     0     0
SMALL
No Charge or Current Charge


@<TRIPOS>ATOM
      1 C1          27.9830   -13.6510     8.4560 c6         1 291       0.360300
      2 C2          27.3520   -14.3050     9.7380 c6         1 291       0.118300
      3 C3          27.4920   -13.3140    10.9310 c6         1 291       0.137300
      4 C4          28.9810   -12.8840    11.1200 c6         1 291       0.123300
      5 C5          29.5380   -12.3110     9.7800 c6         1 291       0.140300
      6 C6          31.0660   -11.9900     9.8350 c3         1 291       0.160300
      7 C7          31.4930   -11.0420     8.6720 c3         1 291       0.145600
      8 O1          27.2460   -12.4820     8.0550 os         1 291      -0.481000
      9 O2          27.9790   -15.5670    10.0990 oh         1 291      -0.717000
     10 O3          27.0020   -13.9360    12.1330 oh         1 291      -0.654000
     11 O4          29.0760   -11.9250    12.1930 oh         1 291      -0.716000
     12 O5          29.3590   -13.2800     8.7080 os         1 291      -0.477000
     13 O6          31.8250   -13.2180     9.8060 oh         1 291      -0.706000
     14 O7          32.8880   -10.6780     8.8040 os         1 291      -0.459100
     15 C8          33.8330   -11.4420     8.1870 c          1 291       0.650100
     16 N1          35.0540   -11.0130     8.5300 nt         1 291      -0.599000
     17 O8          33.6370   -12.3640     7.4160 o          1 291      -0.547000
     18 C9          27.6230   -11.8940     6.8020 c3         1 291       0.198800
     19 C10         26.7660   -10.6620     6.6130 c2         1 291      -0.227200
     20 C11         27.0200    -9.4480     7.1300 c2         1 291      -0.296000
     21 H1          27.9530   -14.3860     7.6370 h2         1 291       0.068700
     22 H2          26.2800   -14.4620     9.5410 h1         1 291       0.065700
     23 H3          26.9010   -12.4140    10.6990 h1         1 291       0.098700
     24 H4          29.5670   -13.7810    11.3730 h1         1 291       0.067700
     25 H5          28.9950   -11.3860     9.5330 h1         1 291       0.060700
     26 H6          31.2580   -11.4480    10.7720 h1         1 291       0.099700
     27 H71         31.2780   -11.5040     7.6990 h1         1 291       0.068700
     28 H72         30.8760   -10.1360     8.7360 h1         1 291       0.068700
     29 HO2         27.8780   -16.1810     9.3330 ho         1 291       0.513000
     30 HO3         27.2100   -14.8920    12.0050 ho         1 291       0.456000
     31 HO4         28.4600   -12.2550    12.8910 ho         1 291       0.520000
     32 HO6         31.3150   -13.8030     9.1950 ho         1 291       0.521000
     33 HN1         35.1430   -10.2390     9.1690 hn         1 291       0.327500
     34 HN1A        35.8680   -11.4720     8.1510 hn         1 291       0.327500
     35 H9          28.6840   -11.6100     6.8020 h1         1 291       0.036700
     36 H9A         27.4560   -12.5980     5.9760 h1         1 291       0.036700
     37 H10         25.8800   -10.8310     5.9980 ha         1 291       0.178000
     38 H11         26.3560    -8.6010     6.9540 ha         1 291       0.165500
     39 H11A        27.8990    -9.2610     7.7500 ha         1 291       0.165500
@<TRIPOS>BOND
     1     1     2 1   
     2     1     8 1   
     3     1    12 1   
     4     1    21 1   
     5     2     3 1   
     6     2     9 1   
     7     2    22 1   
     8     3     4 1   
     9     3    10 1   
    10     3    23 1   
    11     4     5 1   
    12     4    11 1   
    13     4    24 1   
    14     5     6 1   
    15     5    12 1   
    16     5    25 1   
    17     6     7 1   
    18     6    13 1   
    19     6    26 1   
    20     7    14 1   
    21     7    27 1   
    22     7    28 1   
    23     8    18 1   
    24     9    29 1   
    25    10    30 1   
    26    11    31 1   
    27    13    32 1   
    28    14    15 1   
    29    15    16 1   
    30    15    17 2   
    31    16    33 1   
    32    16    34 1   
    33    18    19 1   
    34    18    35 1   
    35    18    36 1   
    36    19    20 2   
    37    19    37 1   
    38    20    38 1   
    39    20    39 1   
@<TRIPOS>SUBSTRUCTURE
     1 291         1 TEMP              0 ****  ****    0 ROOT
