@<TRIPOS>MOLECULE
292
   39    42     1     0     0
SMALL
abcg2


@<TRIPOS>ATOM
      1 C1          -2.0670     0.5040    -6.6520 cx         1 292      -0.117900
      2 C2          -1.3600    -0.7830    -6.9150 cx         1 292      -0.117900
      3 C3          -1.7030    -0.3940    -5.5020 cx         1 292      -0.165000
      4 C4          -0.6380    -0.0020    -4.5610 cc         1 292       0.303300
      5 C5          -0.5780    -0.3190    -3.1880 cc         1 292      -0.227000
      6 C6           0.5960     0.2660    -2.7570 cd         1 292       0.001600
      7 N7           1.1400     0.8640    -3.8310 na         1 292      -0.045200
      8 N8           0.4040     0.7120    -4.9380 nd         1 292      -0.527800
      9 N9           1.2340     0.3330    -1.5340 ns         1 292      -0.407100
     10 C10          0.7950    -0.2470    -0.3850 c          1 292       0.611100
     11 C11          1.7400    -0.0620     0.7870 c3         1 292      -0.110100
     12 C12          1.0580    -0.2650     2.1070 ca         1 292      -0.073300
     13 C13          0.6330     0.8050     2.8480 ca         1 292      -0.084000
     14 C14         -0.0150     0.6270     4.0930 ca         1 292      -0.037000
     15 C15         -0.2250    -0.6890     4.5800 ca         1 292      -0.030000
     16 C16          0.2220    -1.7800     3.7980 ca         1 292      -0.096000
     17 C17          0.8420    -1.5740     2.5980 ca         1 292      -0.084000
     18 C18         -0.8680    -0.8670     5.8270 ca         1 292      -0.098000
     19 C19         -0.4560     1.7240     4.8700 ca         1 292      -0.097000
     20 C20         -1.0760     1.5220     6.0740 ca         1 292      -0.107000
     21 C21         -1.2850     0.2120     6.5570 ca         1 292      -0.104000
     22 O22         -0.2410    -0.8750    -0.3150 o          1 292      -0.544100
     23 H1C1        -3.1140     0.5820    -6.9180 hc         1 292       0.074450
     24 H1C2        -1.5050     1.4240    -6.7540 hc         1 292       0.074450
     25 H2C1        -0.3160    -0.7410    -7.1980 hc         1 292       0.074450
     26 H2C2        -1.9160    -1.5950    -7.3640 hc         1 292       0.074450
     27 H3          -2.5170    -0.9370    -5.0380 hc         1 292       0.085700
     28 H5          -1.2900    -0.8860    -2.6170 ha         1 292       0.168000
     29 H7           2.0020     1.3840    -3.8700 hn         1 292       0.364000
     30 H9           2.1010     0.8500    -1.4990 hn         1 292       0.316500
     31 H111         2.5520    -0.7870     0.6650 hc         1 292       0.065700
     32 H112         2.2050     0.9250     0.7420 hc         1 292       0.065700
     33 H13          0.7950     1.8140     2.4870 ha         1 292       0.109000
     34 H16          0.0680    -2.7880     4.1650 ha         1 292       0.116000
     35 H17          1.1840    -2.4220     2.0180 ha         1 292       0.116000
     36 H18         -1.0270    -1.8730     6.1960 ha         1 292       0.114000
     37 H19         -0.2960     2.7290     4.4990 ha         1 292       0.112000
     38 H20         -1.4080     2.3680     6.6620 ha         1 292       0.113000
     39 H21         -1.7780     0.0650     7.5090 ha         1 292       0.113000
@<TRIPOS>BOND
     1     1     2 1   
     2     1     3 1   
     3     1    23 1   
     4     1    24 1   
     5     2     3 1   
     6     2    25 1   
     7     2    26 1   
     8     3     4 1   
     9     3    27 1   
    10     4     5 1   
    11     4     8 2   
    12     5     6 2   
    13     5    28 1   
    14     6     7 1   
    15     6     9 1   
    16     7     8 1   
    17     7    29 1   
    18     9    10 1   
    19     9    30 1   
    20    10    11 1   
    21    10    22 2   
    22    11    12 1   
    23    11    31 1   
    24    11    32 1   
    25    12    13 ar  
    26    12    17 ar  
    27    13    14 ar  
    28    13    33 1   
    29    14    15 ar  
    30    14    19 ar  
    31    15    16 ar  
    32    15    18 ar  
    33    16    17 ar  
    34    16    34 1   
    35    17    35 1   
    36    18    21 ar  
    37    18    36 1   
    38    19    20 ar  
    39    19    37 1   
    40    20    21 ar  
    41    20    38 1   
    42    21    39 1   
@<TRIPOS>SUBSTRUCTURE
     1 292         1 TEMP              0 ****  ****    0 ROOT
