@<TRIPOS>MOLECULE
292
   39    42     1     0     0
SMALL
No Charge or Current Charge


@<TRIPOS>ATOM
      1 C1          -2.5860     0.3550    -5.9200 cx         1 292      -0.117900
      2 C2          -1.3740    -0.0960    -6.7020 cx         1 292      -0.117900
      3 C3          -1.4880    -0.4240    -5.2280 cx         1 292      -0.165000
      4 C4          -0.6050     0.2490    -4.2470 cc         1 292       0.303300
      5 C5          -0.1620    -0.4850    -3.1360 cc         1 292      -0.227000
      6 C6           0.6210     0.3490    -2.4020 cd         1 292       0.001600
      7 N7           0.6180     1.5570    -3.1060 na         1 292      -0.045200
      8 N8          -0.1550     1.4910    -4.2680 nd         1 292      -0.527800
      9 N9           1.2890     0.0910    -1.2140 ns         1 292      -0.407100
     10 C10          1.3290    -1.0780    -0.4710 c          1 292       0.611100
     11 C11          2.1710    -0.9940     0.8090 c3         1 292      -0.110100
     12 C12          1.2760    -0.8290     2.0340 ca         1 292      -0.073300
     13 C13          0.9300     0.4560     2.4940 ca         1 292      -0.084000
     14 C14          0.0990     0.6100     3.6200 ca         1 292      -0.037000
     15 C15         -0.3920    -0.5300     4.2930 ca         1 292      -0.030000
     16 C16         -0.0470    -1.8140     3.8340 ca         1 292      -0.096000
     17 C17          0.7820    -1.9620     2.7090 ca         1 292      -0.084000
     18 C18         -1.2230    -0.3760     5.4190 ca         1 292      -0.098000
     19 C19         -0.2460     1.8960     4.0780 ca         1 292      -0.097000
     20 C20         -1.0760     2.0450     5.2030 ca         1 292      -0.107000
     21 C21         -1.5640     0.9100     5.8730 ca         1 292      -0.104000
     22 O22          0.7410    -2.1030    -0.7880 o          1 292      -0.544100
     23 H1C1        -3.5290    -0.1550    -6.1060 hc         1 292       0.074450
     24 H1C2        -2.6810     1.4160    -5.7010 hc         1 292       0.074450
     25 H2C1        -0.6570     0.6640    -7.0060 hc         1 292       0.074450
     26 H2C2        -1.5030    -0.9080    -7.4130 hc         1 292       0.074450
     27 H3          -1.7080    -1.4580    -4.9740 hc         1 292       0.085700
     28 H5          -0.4170    -1.5180    -2.9320 ha         1 292       0.168000
     29 H7           1.1070     2.4100    -2.8400 hn         1 292       0.364000
     30 H9           1.8310     0.8420    -0.8020 hn         1 292       0.316500
     31 H111         2.7540    -1.9170     0.9040 hc         1 292       0.065700
     32 H112         2.8580    -0.1420     0.7500 hc         1 292       0.065700
     33 H13          1.3050     1.3360     1.9770 ha         1 292       0.109000
     34 H16         -0.4210    -2.6980     4.3450 ha         1 292       0.116000
     35 H17          1.0390    -2.9610     2.3610 ha         1 292       0.116000
     36 H18         -1.6050    -1.2500     5.9430 ha         1 292       0.114000
     37 H19          0.1280     2.7800     3.5650 ha         1 292       0.112000
     38 H20         -1.3410     3.0390     5.5550 ha         1 292       0.113000
     39 H21         -2.2060     1.0260     6.7430 ha         1 292       0.113000
@<TRIPOS>BOND
     1     1     2 1   
     2     1     3 1   
     3     1    23 1   
     4     1    24 1   
     5     2     3 1   
     6     2    25 1   
     7     2    26 1   
     8     3     4 1   
     9     3    27 1   
    10     4     5 1   
    11     4     8 2   
    12     5     6 2   
    13     5    28 1   
    14     6     7 1   
    15     6     9 1   
    16     7     8 1   
    17     7    29 1   
    18     9    10 1   
    19     9    30 1   
    20    10    11 1   
    21    10    22 2   
    22    11    12 1   
    23    11    31 1   
    24    11    32 1   
    25    12    13 ar  
    26    12    17 ar  
    27    13    14 ar  
    28    13    33 1   
    29    14    15 ar  
    30    14    19 ar  
    31    15    16 ar  
    32    15    18 ar  
    33    16    17 ar  
    34    16    34 1   
    35    17    35 1   
    36    18    21 ar  
    37    18    36 1   
    38    19    20 ar  
    39    19    37 1   
    40    20    21 ar  
    41    20    38 1   
    42    21    39 1   
@<TRIPOS>SUBSTRUCTURE
     1 292         1 TEMP              0 ****  ****    0 ROOT
