@<TRIPOS>MOLECULE
293
   27    27     1     0     0
SMALL
No Charge or Current Charge


@<TRIPOS>ATOM
      1 C1          27.5730   -17.4350    10.4950 c6         1 293       0.396300
      2 C2          26.2250   -17.6120     9.7610 c6         1 293      -0.188400
      3 C3          25.9130   -16.3970     8.8580 c6         1 293       0.167300
      4 C4          25.9890   -15.0720     9.6740 c6         1 293       0.116300
      5 C5          27.3810   -14.9840    10.3720 c6         1 293       0.103300
      6 C6          27.5060   -13.7590    11.3330 c3         1 293       0.132300
      7 C7          28.9800   -13.4060    11.6650 c3         1 293       0.132600
      8 O1          28.6560   -17.4380     9.5770 oh         1 293      -0.663000
      9 O3          24.6150   -16.5460     8.2620 oh         1 293      -0.630000
     10 O4          25.7570   -13.9460     8.8060 oh         1 293      -0.703000
     11 O5          27.5950   -16.1730    11.1890 os         1 293      -0.483000
     12 O6          26.8130   -14.0300    12.5690 oh         1 293      -0.725000
     13 O7          29.0030   -12.3430    12.6290 oh         1 293      -0.651000
     14 H1          27.6980   -18.2550    11.2230 h2         1 293       0.105700
     15 H2          26.2490   -18.5320     9.1630 hc         1 293       0.069200
     16 H2A         25.4320   -17.7440    10.5100 hc         1 293       0.069200
     17 H3          26.6790   -16.3520     8.0680 h1         1 293       0.082700
     18 H4          25.2150   -15.1030    10.4550 h1         1 293       0.048700
     19 H5          28.1670   -14.9120     9.6060 h1         1 293       0.057700
     20 H6          27.0670   -12.8860    10.8290 h1         1 293       0.087700
     21 H71         29.4860   -14.2970    12.0620 h1         1 293       0.054700
     22 H72         29.5010   -13.1070    10.7450 h1         1 293       0.054700
     23 HO1         29.4380   -17.1980    10.1160 ho         1 293       0.450000
     24 HO3         24.0180   -16.8930     8.9600 ho         1 293       0.439000
     25 HO4         25.0410   -14.2340     8.1890 ho         1 293       0.515000
     26 HO6         26.8570   -15.0150    12.6500 ho         1 293       0.514000
     27 HO7         28.2080   -12.5100    13.1890 ho         1 293       0.448000
@<TRIPOS>BOND
     1     1     2 1   
     2     1     8 1   
     3     1    11 1   
     4     1    14 1   
     5     2     3 1   
     6     2    15 1   
     7     2    16 1   
     8     3     4 1   
     9     3     9 1   
    10     3    17 1   
    11     4     5 1   
    12     4    10 1   
    13     4    18 1   
    14     5     6 1   
    15     5    11 1   
    16     5    19 1   
    17     6     7 1   
    18     6    12 1   
    19     6    20 1   
    20     7    13 1   
    21     7    21 1   
    22     7    22 1   
    23     8    23 1   
    24     9    24 1   
    25    10    25 1   
    26    12    26 1   
    27    13    27 1   
@<TRIPOS>SUBSTRUCTURE
     1 293         1 TEMP              0 ****  ****    0 ROOT
