@<TRIPOS>MOLECULE
294
   48    50     1     0     0
SMALL
No Charge or Current Charge


@<TRIPOS>ATOM
      1 C10          5.1700     1.0910    -0.4940 c6         1 294      -0.092400
      2 C14          1.5890    -1.1920    -1.2280 ca         1 294      -0.303500
      3 C15          0.5640    -0.3110    -1.6310 ca         1 294       0.027500
      4 C16         -0.7820    -0.6650    -1.4400 ca         1 294      -0.178000
      5 C17         -1.1100    -1.8990    -0.8510 ca         1 294       0.196100
      6 C18         -0.0930    -2.7900    -0.4800 ca         1 294      -0.178000
      7 C19          1.2550    -2.4430    -0.6670 ca         1 294       0.027500
      8 C21         -3.3960    -1.3870    -0.2550 ca         1 294       0.124100
      9 C22         -4.6910    -1.5140    -0.7780 ca         1 294      -0.127500
     10 C23         -5.7090    -0.6350    -0.3710 ca         1 294      -0.047500
     11 C24         -5.4390     0.3840     0.5700 ca         1 294      -0.200300
     12 C25         -4.1380     0.4910     1.1100 ca         1 294      -0.047500
     13 C26         -3.1220    -0.3910     0.7000 ca         1 294      -0.127500
     14 C27         -6.5500     1.3380     1.0240 c3         1 294       0.359300
     15 O1           5.3180    -1.5470     2.8670 oh         1 294      -0.428100
     16 N2           5.0670    -0.5380     1.8550 ns         1 294      -0.365400
     17 C3           3.8690    -0.5160     1.1460 c          1 294       0.601100
     18 O4           2.9370    -1.2270     1.4890 o          1 294      -0.553100
     19 C5           3.7980     0.3860    -0.1150 c6         1 294      -0.316000
     20 C6           2.7540     1.5420     0.1000 c6         1 294      -0.092400
     21 C7           3.2630     2.6260     1.0800 c6         1 294       0.159600
     22 O8           4.4800     3.2010     0.5670 os         1 294      -0.440000
     23 C9           5.5640     2.2590     0.4580 c6         1 294       0.159600
     24 S11          3.3200    -0.7400    -1.4960 sy         1 294       1.038500
     25 O12          4.1430    -1.9520    -1.3810 o          1 294      -0.517500
     26 O13          3.3580     0.0620    -2.7270 o          1 294      -0.517500
     27 O20         -2.4220    -2.2710    -0.6630 os         1 294      -0.247200
     28 F28         -7.2090     0.8480     2.0980 f          1 294      -0.111333
     29 F29         -6.0720     2.5540     1.3740 f          1 294      -0.111333
     30 F30         -7.4730     1.5500     0.0580 f          1 294      -0.111333
     31 H10          5.9890     0.3610    -0.5610 hc         1 294       0.072200
     32 H10A         5.0960     1.5240    -1.5020 hc         1 294       0.072200
     33 H15          0.8030     0.6460    -2.0940 ha         1 294       0.141000
     34 H16         -1.5660     0.0170    -1.7560 ha         1 294       0.137500
     35 H18         -0.3500    -3.7500    -0.0420 ha         1 294       0.137500
     36 H19          2.0330    -3.1440    -0.3680 ha         1 294       0.141000
     37 H22         -4.9060    -2.2950    -1.5040 ha         1 294       0.140000
     38 H23         -6.7080    -0.7520    -0.7880 ha         1 294       0.136500
     39 H25         -3.9090     1.2530     1.8530 ha         1 294       0.136500
     40 H26         -2.1280    -0.3010     1.1310 ha         1 294       0.140000
     41 HO1          5.6240    -1.0260     3.6460 ho         1 294       0.452000
     42 HN2          5.8920    -0.1070     1.4460 hn         1 294       0.353500
     43 H6           2.5230     2.0290    -0.8580 hc         1 294       0.072200
     44 H6A          1.8030     1.1400     0.4760 hc         1 294       0.072200
     45 H7           2.5100     3.4200     1.1830 h1         1 294       0.053700
     46 H7A          3.4460     2.1980     2.0770 h1         1 294       0.053700
     47 H9           5.8240     1.8970     1.4620 h1         1 294       0.053700
     48 H9A          6.4460     2.7800     0.0580 h1         1 294       0.053700
@<TRIPOS>BOND
     1     1    19 1   
     2     1    23 1   
     3     1    31 1   
     4     1    32 1   
     5     2     3 ar  
     6     2     7 ar  
     7     2    24 1   
     8     3     4 ar  
     9     3    33 1   
    10     4     5 ar  
    11     4    34 1   
    12     5     6 ar  
    13     5    27 1   
    14     6     7 ar  
    15     6    35 1   
    16     7    36 1   
    17     8     9 ar  
    18     8    13 ar  
    19     8    27 1   
    20     9    10 ar  
    21     9    37 1   
    22    10    11 ar  
    23    10    38 1   
    24    11    12 ar  
    25    11    14 1   
    26    12    13 ar  
    27    12    39 1   
    28    13    40 1   
    29    14    28 1   
    30    14    29 1   
    31    14    30 1   
    32    15    16 1   
    33    15    41 1   
    34    16    17 1   
    35    16    42 1   
    36    17    18 2   
    37    17    19 1   
    38    19    20 1   
    39    19    24 1   
    40    20    21 1   
    41    20    43 1   
    42    20    44 1   
    43    21    22 1   
    44    21    45 1   
    45    21    46 1   
    46    22    23 1   
    47    23    47 1   
    48    23    48 1   
    49    24    25 2   
    50    24    26 2   
@<TRIPOS>SUBSTRUCTURE
     1 294         1 TEMP              0 ****  ****    0 ROOT
