@<TRIPOS>MOLECULE
294
   48    50     1     0     0
SMALL
abcg2


@<TRIPOS>ATOM
      1 C10          5.1880     1.0860    -0.5470 c6         1 294      -0.092400
      2 C14          1.5240    -0.9210    -1.0320 ca         1 294      -0.303500
      3 C15          0.4230    -0.1270    -1.3220 ca         1 294       0.027500
      4 C16         -0.8410    -0.5350    -0.9350 ca         1 294      -0.178000
      5 C17         -0.9940    -1.7450    -0.2640 ca         1 294       0.196100
      6 C18          0.1120    -2.5460     0.0150 ca         1 294      -0.178000
      7 C19          1.3710    -2.1360    -0.3710 ca         1 294       0.027500
      8 C21         -3.2790    -1.3920     0.1800 ca         1 294       0.124100
      9 C22         -4.3140    -1.5800    -0.7200 ca         1 294      -0.127500
     10 C23         -5.4390    -0.7730    -0.6400 ca         1 294      -0.047500
     11 C24         -5.5160     0.2220     0.3260 ca         1 294      -0.200300
     12 C25         -4.4700     0.3980     1.2270 ca         1 294      -0.047500
     13 C26         -3.3480    -0.4090     1.1570 ca         1 294      -0.127500
     14 C27         -6.7380     1.0750     0.4420 c3         1 294       0.359300
     15 O1           4.8450    -2.1620     2.1260 oh         1 294      -0.428100
     16 N2           4.8580    -1.1820     1.1790 ns         1 294      -0.365400
     17 C3           3.8080    -0.3430     1.1110 c          1 294       0.601100
     18 O4           2.9400    -0.2910     1.9570 o          1 294      -0.553100
     19 C5           3.7990     0.5850    -0.1180 c6         1 294      -0.316000
     20 C6           2.9060     1.8020     0.1300 c6         1 294      -0.092400
     21 C7           3.5780     2.7710     1.0970 c6         1 294       0.159600
     22 O8           4.8480     3.1750     0.6410 os         1 294      -0.440000
     23 C9           5.7180     2.0830     0.4760 c6         1 294       0.159600
     24 S11          3.1290    -0.3930    -1.5290 sy         1 294       1.038500
     25 O12          3.9830    -1.5720    -1.6770 o          1 294      -0.517500
     26 O13          2.9840     0.5150    -2.6630 o          1 294      -0.517500
     27 O20         -2.1960    -2.2300     0.1230 os         1 294      -0.247200
     28 F28         -7.5830     0.6070     1.3740 f          1 294      -0.111333
     29 F29         -6.4410     2.3320     0.7960 f          1 294      -0.111333
     30 F30         -7.4260     1.1410    -0.7030 f          1 294      -0.111333
     31 H10          5.9180     0.2880    -0.6790 hc         1 294       0.072200
     32 H10A         5.1010     1.5890    -1.5130 hc         1 294       0.072200
     33 H15          0.5320     0.8070    -1.8550 ha         1 294       0.141000
     34 H16         -1.6910     0.0900    -1.1750 ha         1 294       0.137500
     35 H18         -0.0210    -3.4890     0.5290 ha         1 294       0.137500
     36 H19          2.2220    -2.7680    -0.1560 ha         1 294       0.141000
     37 H22         -4.2460    -2.3510    -1.4750 ha         1 294       0.140000
     38 H23         -6.2410    -0.9290    -1.3480 ha         1 294       0.136500
     39 H25         -4.5150     1.1610     1.9920 ha         1 294       0.136500
     40 H26         -2.5380    -0.2740     1.8620 ha         1 294       0.140000
     41 HO1          5.4310    -1.8560     2.8300 ho         1 294       0.452000
     42 HN2          5.4230    -1.4060     0.3710 hn         1 294       0.353500
     43 H6           2.7350     2.3160    -0.8170 hc         1 294       0.072200
     44 H6A          1.9350     1.5130     0.5310 hc         1 294       0.072200
     45 H7           2.9660     3.6690     1.1850 h1         1 294       0.053700
     46 H7A          3.6490     2.3250     2.0970 h1         1 294       0.053700
     47 H9           5.9050     1.5820     1.4360 h1         1 294       0.053700
     48 H9A          6.6730     2.4780     0.1260 h1         1 294       0.053700
@<TRIPOS>BOND
     1     1    19 1   
     2     1    23 1   
     3     1    31 1   
     4     1    32 1   
     5     2     3 ar  
     6     2     7 ar  
     7     2    24 1   
     8     3     4 ar  
     9     3    33 1   
    10     4     5 ar  
    11     4    34 1   
    12     5     6 ar  
    13     5    27 1   
    14     6     7 ar  
    15     6    35 1   
    16     7    36 1   
    17     8     9 ar  
    18     8    13 ar  
    19     8    27 1   
    20     9    10 ar  
    21     9    37 1   
    22    10    11 ar  
    23    10    38 1   
    24    11    12 ar  
    25    11    14 1   
    26    12    13 ar  
    27    12    39 1   
    28    13    40 1   
    29    14    28 1   
    30    14    29 1   
    31    14    30 1   
    32    15    16 1   
    33    15    41 1   
    34    16    17 1   
    35    16    42 1   
    36    17    18 2   
    37    17    19 1   
    38    19    20 1   
    39    19    24 1   
    40    20    21 1   
    41    20    43 1   
    42    20    44 1   
    43    21    22 1   
    44    21    45 1   
    45    21    46 1   
    46    22    23 1   
    47    23    47 1   
    48    23    48 1   
    49    24    25 2   
    50    24    26 2   
@<TRIPOS>SUBSTRUCTURE
     1 294         1 TEMP              0 ****  ****    0 ROOT
