@<TRIPOS>MOLECULE
295
   22    22     1     0     0
SMALL
No Charge or Current Charge


@<TRIPOS>ATOM
      1 C1          -1.5090    -0.6380     1.2370 ca         1 295      -0.067500
      2 C           -2.8890    -0.7630     0.9970 ca         1 295      -0.166500
      3 C5          -3.4700    -0.1050    -0.0980 ca         1 295       0.140000
      4 C4          -2.6810     0.6780    -0.9530 ca         1 295      -0.166500
      5 C3          -1.3010     0.8040    -0.7140 ca         1 295      -0.067500
      6 C2          -0.7030     0.1430     0.3820 ca         1 295      -0.052300
      7 C6           0.7990     0.2750     0.6530 c3         1 295       0.219600
      8 O4           1.1120     1.6370     0.9690 oh         1 295      -0.717000
      9 C7           1.6910    -0.2110    -0.5350 c3         1 295      -0.014700
     10 C8           3.2210    -0.0230    -0.2360 c          1 295       0.690000
     11 O1           3.9670    -0.9580    -0.4970 o          1 295      -0.711500
     12 O            3.5940     1.0160     0.2950 o          1 295      -0.711500
     13 O3           1.3860    -1.5950    -0.8760 oh         1 295      -0.691000
     14 F1          -4.7950    -0.2250    -0.3270 f          1 295      -0.204000
     15 H1          -1.0640    -1.1510     2.0880 ha         1 295       0.122500
     16 H           -3.5060    -1.3670     1.6570 ha         1 295       0.113000
     17 H4          -3.1380     1.1880    -1.7980 ha         1 295       0.113000
     18 H3          -0.6950     1.4170    -1.3770 ha         1 295       0.122500
     19 H6           1.0490    -0.3520     1.5200 h1         1 295       0.029700
     20 HO4          2.1010     1.6870     0.8520 ho         1 295       0.508000
     21 H7           1.4780     0.4260    -1.4040 h1         1 295       0.040700
     22 HO3          2.2690    -2.0330    -0.9640 ho         1 295       0.470000
@<TRIPOS>BOND
     1     1     2 ar  
     2     1     6 ar  
     3     1    15 1   
     4     2     3 ar  
     5     2    16 1   
     6     3     4 ar  
     7     3    14 1   
     8     4     5 ar  
     9     4    17 1   
    10     5     6 ar  
    11     5    18 1   
    12     6     7 1   
    13     7     8 1   
    14     7     9 1   
    15     7    19 1   
    16     8    20 1   
    17     9    10 1   
    18     9    13 1   
    19     9    21 1   
    20    10    11 1   
    21    10    12 1   
    22    13    22 1   
@<TRIPOS>SUBSTRUCTURE
     1 295         1 TEMP              0 ****  ****    0 ROOT
