@<TRIPOS>MOLECULE
295
   22    22     1     0     0
SMALL
bcc


@<TRIPOS>ATOM
      1 C1          -1.3650    -0.7720     0.9970 ca         1 295      -0.085500
      2 C           -2.7170    -0.9820     0.7640 ca         1 295      -0.184500
      3 C5          -3.3690    -0.1480    -0.1220 ca         1 295       0.104900
      4 C4          -2.7160     0.8790    -0.7750 ca         1 295      -0.184500
      5 C3          -1.3630     1.0710    -0.5280 ca         1 295      -0.085500
      6 C2          -0.6710     0.2510     0.3590 ca         1 295      -0.052300
      7 C6           0.8040     0.4380     0.5970 c3         1 295       0.196400
      8 O4           1.1180     1.8050     0.5680 oh         1 295      -0.654800
      9 C7           1.6270    -0.3240    -0.4650 c3         1 295      -0.037900
     10 C8           3.1380    -0.1710    -0.1850 c          1 295       0.900600
     11 O1           3.7940    -1.2260    -0.1490 o          1 295      -0.816800
     12 O            3.5660     0.9920    -0.0070 o          1 295      -0.816800
     13 O3           1.2800    -1.6780    -0.4920 oh         1 295      -0.628800
     14 F1          -4.6810    -0.3360    -0.3500 f          1 295      -0.168900
     15 H1          -0.8470    -1.4160     1.6970 ha         1 295       0.140500
     16 H           -3.2530    -1.7760     1.2670 ha         1 295       0.131000
     17 H4          -3.2520     1.5200    -1.4630 ha         1 295       0.131000
     18 H3          -0.8490     1.8780    -1.0340 ha         1 295       0.140500
     19 H6           1.0470    -0.0050     1.5770 h1         1 295       0.029700
     20 HO4          2.0830     1.8320     0.3920 ho         1 295       0.469000
     21 H7           1.4150     0.1480    -1.4380 h1         1 295       0.040700
     22 HO3          2.1270    -2.1310    -0.3410 ho         1 295       0.431000
@<TRIPOS>BOND
     1     1     2 ar  
     2     1     6 ar  
     3     1    15 1   
     4     2     3 ar  
     5     2    16 1   
     6     3     4 ar  
     7     3    14 1   
     8     4     5 ar  
     9     4    17 1   
    10     5     6 ar  
    11     5    18 1   
    12     6     7 1   
    13     7     8 1   
    14     7     9 1   
    15     7    19 1   
    16     8    20 1   
    17     9    10 1   
    18     9    13 1   
    19     9    21 1   
    20    10    11 1   
    21    10    12 1   
    22    13    22 1   
@<TRIPOS>SUBSTRUCTURE
     1 295         1 TEMP              0 ****  ****    0 ROOT
