@<TRIPOS>MOLECULE
296
   26    26     1     0     0
SMALL
No Charge or Current Charge


@<TRIPOS>ATOM
      1 C1           5.4540     0.7880    -0.3130 c3         1 296       0.154900
      2 O2           4.5360     0.0390     0.5040 os         1 296      -0.352100
      3 C3           3.1960    -0.0690     0.1940 ca         1 296       0.116100
      4 C4           2.3810    -0.8200     1.0540 ca         1 296      -0.177000
      5 C5           1.0080    -0.9660     0.7900 ca         1 296      -0.061500
      6 C6           2.6250     0.5420    -0.9440 ca         1 296      -0.177000
      7 C7           1.2520     0.3960    -1.2080 ca         1 296      -0.061500
      8 C8           0.4290    -0.3570    -0.3450 ca         1 296      -0.128300
      9 C9          -1.0650    -0.4980    -0.6550 c3         1 296       0.159800
     10 N10         -1.3880    -1.9300    -0.8480 n8         1 296      -0.962200
     11 C11         -1.9940     0.1920     0.3980 c3         1 296       0.022000
     12 C12         -3.4510     0.3470    -0.1590 c          1 296       0.729000
     13 O13         -3.6160     0.9970    -1.1870 o          1 296      -0.692000
     14 O14         -4.3910    -0.0980     0.4930 o          1 296      -0.692000
     15 F1          -1.9730    -0.5120     1.5650 f          1 296      -0.145500
     16 F2          -1.4860     1.4170     0.6980 f          1 296      -0.145500
     17 H1           5.4950     0.3760    -1.3290 h1         1 296       0.032033
     18 H1A          5.1540     1.8420    -0.3700 h1         1 296       0.032033
     19 H1B          6.4640     0.7440     0.1140 h1         1 296       0.032033
     20 H4           2.8150    -1.2930     1.9310 ha         1 296       0.108500
     21 H5           0.3970    -1.5550     1.4710 ha         1 296       0.116500
     22 H6           3.2270     1.1300    -1.6300 ha         1 296       0.108500
     23 H7           0.8270     0.8740    -2.0880 ha         1 296       0.116500
     24 H9          -1.2490     0.0040    -1.6170 h1         1 296       0.093700
     25 HN10        -0.7150    -2.3300    -1.5110 hn         1 296       0.385500
     26 HN1A        -1.1890    -2.4260     0.0260 hn         1 296       0.385500
@<TRIPOS>BOND
     1     1     2 1   
     2     1    17 1   
     3     1    18 1   
     4     1    19 1   
     5     2     3 1   
     6     3     4 ar  
     7     3     6 ar  
     8     4     5 ar  
     9     4    20 1   
    10     5     8 ar  
    11     5    21 1   
    12     6     7 ar  
    13     6    22 1   
    14     7     8 ar  
    15     7    23 1   
    16     8     9 1   
    17     9    10 1   
    18     9    11 1   
    19     9    24 1   
    20    10    25 1   
    21    10    26 1   
    22    11    12 1   
    23    11    15 1   
    24    11    16 1   
    25    12    13 1   
    26    12    14 1   
@<TRIPOS>SUBSTRUCTURE
     1 296         1 TEMP              0 ****  ****    0 ROOT
