@<TRIPOS>MOLECULE
296
   26    26     1     0     0
SMALL
abcg2


@<TRIPOS>ATOM
      1 C1           5.3300     0.8740    -0.2010 c3         1 296       0.154900
      2 O2           4.5110    -0.0460     0.4910 os         1 296      -0.352100
      3 C3           3.2080    -0.1240     0.1550 ca         1 296       0.116100
      4 C4           2.4400    -1.0510     0.8640 ca         1 296      -0.177000
      5 C5           1.0940    -1.1990     0.5870 ca         1 296      -0.061500
      6 C6           2.6010     0.6400    -0.8380 ca         1 296      -0.177000
      7 C7           1.2450     0.4760    -1.0980 ca         1 296      -0.061500
      8 C8           0.4680    -0.4390    -0.4000 ca         1 296      -0.128300
      9 C9          -1.0110    -0.5710    -0.7000 c3         1 296       0.159800
     10 N10         -1.5790    -1.9000    -0.5920 n8         1 296      -0.962200
     11 C11         -1.8400     0.3560     0.1840 c3         1 296       0.022000
     12 C12         -3.3530     0.3310    -0.1460 c          1 296       0.729000
     13 O13         -3.6180     0.7190    -1.2950 o          1 296      -0.692000
     14 O14         -4.1190    -0.0550     0.7450 o          1 296      -0.692000
     15 F1          -1.6200     0.0390     1.4950 f          1 296      -0.145500
     16 F2          -1.3790     1.6410     0.0450 f          1 296      -0.145500
     17 H1           5.3860     0.6490    -1.2700 h1         1 296       0.032033
     18 H1A          4.9850     1.9040    -0.0770 h1         1 296       0.032033
     19 H1B          6.3260     0.7850     0.2270 h1         1 296       0.032033
     20 H4           2.9090    -1.6520     1.6330 ha         1 296       0.108500
     21 H5           0.5340    -1.9380     1.1470 ha         1 296       0.116500
     22 H6           3.1610     1.3610    -1.4170 ha         1 296       0.108500
     23 H7           0.7940     1.0750    -1.8810 ha         1 296       0.116500
     24 H9          -1.1800    -0.2310    -1.7250 h1         1 296       0.093700
     25 HN10        -1.1080    -2.5260    -1.2330 hn         1 296       0.385500
     26 HN1A        -1.4430    -2.2840     0.3340 hn         1 296       0.385500
@<TRIPOS>BOND
     1     1     2 1   
     2     1    17 1   
     3     1    18 1   
     4     1    19 1   
     5     2     3 1   
     6     3     4 ar  
     7     3     6 ar  
     8     4     5 ar  
     9     4    20 1   
    10     5     8 ar  
    11     5    21 1   
    12     6     7 ar  
    13     6    22 1   
    14     7     8 ar  
    15     7    23 1   
    16     8     9 1   
    17     9    10 1   
    18     9    11 1   
    19     9    24 1   
    20    10    25 1   
    21    10    26 1   
    22    11    12 1   
    23    11    15 1   
    24    11    16 1   
    25    12    13 1   
    26    12    14 1   
@<TRIPOS>SUBSTRUCTURE
     1 296         1 TEMP              0 ****  ****    0 ROOT
