@<TRIPOS>MOLECULE
297
   42    41     1     0     0
SMALL
bcc


@<TRIPOS>ATOM
      1 N1           8.1740    -0.3380     0.0820 n8         1 297      -0.884800
      2 C2           6.9770     0.4920     0.0450 c3         1 297       0.149300
      3 C3           5.7190    -0.3620     0.0340 c3         1 297      -0.078400
      4 C4           4.4420     0.4670     0.0060 c3         1 297      -0.075400
      5 C5           3.1750    -0.3790    -0.0070 c3         1 297      -0.073900
      6 C6           1.8980     0.4520    -0.0190 c3         1 297      -0.074400
      7 C7           0.6300    -0.3930    -0.0300 c3         1 297      -0.074400
      8 C8          -0.6470     0.4380    -0.0250 c3         1 297      -0.074400
      9 C9          -1.9150    -0.4070    -0.0350 c3         1 297      -0.074400
     10 C10         -3.1920     0.4230    -0.0130 c3         1 297      -0.073900
     11 C11         -4.4580    -0.4260    -0.0210 c3         1 297      -0.075400
     12 C12         -5.7360     0.4020     0.0220 c3         1 297      -0.078400
     13 C13         -6.9930    -0.4550     0.0090 c3         1 297       0.149300
     14 N14         -8.1920     0.3710     0.0630 n8         1 297      -0.884800
     15 HN1          8.9950     0.2530     0.0560 hn         1 297       0.335300
     16 HN1A         8.2150    -0.8180     0.9730 hn         1 297       0.335300
     17 H2           6.9130     1.2050     0.8810 h1         1 297       0.025700
     18 H2A          7.0060     1.0950    -0.8670 h1         1 297       0.025700
     19 H3           5.7470    -1.0300    -0.8330 hc         1 297       0.045700
     20 H3A          5.7120    -1.0070     0.9200 hc         1 297       0.045700
     21 H4           4.4210     1.1340     0.8760 hc         1 297       0.036200
     22 H4A          4.4500     1.1200    -0.8740 hc         1 297       0.036200
     23 H5           3.1880    -1.0400    -0.8810 hc         1 297       0.038200
     24 H5A          3.1700    -1.0380     0.8690 hc         1 297       0.038200
     25 H6           1.8870     1.1110     0.8570 hc         1 297       0.037200
     26 H6A          1.9020     1.1110    -0.8940 hc         1 297       0.037200
     27 H7           0.6350    -1.0450    -0.9110 hc         1 297       0.037200
     28 H7A          0.6310    -1.0600     0.8400 hc         1 297       0.037200
     29 H8          -0.6520     1.0890     0.8570 hc         1 297       0.037200
     30 H8A         -0.6490     1.1060    -0.8930 hc         1 297       0.037200
     31 H9          -1.9150    -1.0510    -0.9220 hc         1 297       0.037200
     32 H9A         -1.9070    -1.0830     0.8290 hc         1 297       0.037200
     33 H10         -3.1920     1.0650     0.8750 hc         1 297       0.038200
     34 H10A        -3.2020     1.0990    -0.8750 hc         1 297       0.038200
     35 H11         -4.4640    -1.0580    -0.9160 hc         1 297       0.036200
     36 H11A        -4.4390    -1.1110     0.8340 hc         1 297       0.036200
     37 H12         -5.7340     1.0250     0.9240 hc         1 297       0.045700
     38 H12A        -5.7630     1.0900    -0.8290 hc         1 297       0.045700
     39 H13         -7.0180    -1.0350    -0.9180 h1         1 297       0.025700
     40 H13A        -6.9300    -1.1880     0.8270 h1         1 297       0.025700
     41 HN14        -9.0120    -0.2200     0.0240 hn         1 297       0.335300
     42 HN1B        -8.2340     0.8320     0.9640 hn         1 297       0.335300
@<TRIPOS>BOND
     1     1     2 1   
     2     1    15 1   
     3     1    16 1   
     4     2     3 1   
     5     2    17 1   
     6     2    18 1   
     7     3     4 1   
     8     3    19 1   
     9     3    20 1   
    10     4     5 1   
    11     4    21 1   
    12     4    22 1   
    13     5     6 1   
    14     5    23 1   
    15     5    24 1   
    16     6     7 1   
    17     6    25 1   
    18     6    26 1   
    19     7     8 1   
    20     7    27 1   
    21     7    28 1   
    22     8     9 1   
    23     8    29 1   
    24     8    30 1   
    25     9    10 1   
    26     9    31 1   
    27     9    32 1   
    28    10    11 1   
    29    10    33 1   
    30    10    34 1   
    31    11    12 1   
    32    11    35 1   
    33    11    36 1   
    34    12    13 1   
    35    12    37 1   
    36    12    38 1   
    37    13    14 1   
    38    13    39 1   
    39    13    40 1   
    40    14    41 1   
    41    14    42 1   
@<TRIPOS>SUBSTRUCTURE
     1 297         1 TEMP              0 ****  ****    0 ROOT
