@<TRIPOS>MOLECULE
297
   42    41     1     0     0
SMALL
No Charge or Current Charge


@<TRIPOS>ATOM
      1 N1           8.2880    -0.3240     0.0080 n8         1 297      -0.995200
      2 C2           7.0690     0.5050     0.0180 c3         1 297       0.149300
      3 C3           5.7930    -0.3610     0.0070 c3         1 297      -0.078400
      4 C4           4.4970     0.4800     0.0140 c3         1 297      -0.075400
      5 C5           3.2150    -0.3820     0.0030 c3         1 297      -0.073900
      6 C6           1.9210     0.4610     0.0100 c3         1 297      -0.074400
      7 C7           0.6390    -0.4010    -0.0010 c3         1 297      -0.074400
      8 C8          -0.6560     0.4420     0.0050 c3         1 297      -0.074400
      9 C9          -1.9370    -0.4200    -0.0060 c3         1 297      -0.074400
     10 C10         -3.2320     0.4230     0.0000 c3         1 297      -0.073900
     11 C11         -4.5140    -0.4390    -0.0120 c3         1 297      -0.075400
     12 C12         -5.8100     0.4020    -0.0050 c3         1 297      -0.078400
     13 C13         -7.0860    -0.4640    -0.0180 c3         1 297       0.149300
     14 N14         -8.3050     0.3650    -0.0140 n8         1 297      -0.995200
     15 HN1          9.1100     0.2890     0.0800 hn         1 297       0.390500
     16 HN1A         8.3230    -0.8750     0.8750 hn         1 297       0.390500
     17 H2           7.0800     1.1380     0.9170 h1         1 297       0.025700
     18 H2A          7.0810     1.1570    -0.8670 h1         1 297       0.025700
     19 H3           5.8000    -1.0030    -0.8820 hc         1 297       0.045700
     20 H3A          5.7960    -1.0230     0.8830 hc         1 297       0.045700
     21 H4           4.4910     1.1230     0.9030 hc         1 297       0.036200
     22 H4A          4.4940     1.1420    -0.8600 hc         1 297       0.036200
     23 H5           3.2210    -1.0250    -0.8850 hc         1 297       0.038200
     24 H5A          3.2180    -1.0440     0.8780 hc         1 297       0.038200
     25 H6           1.9140     1.1040     0.8990 hc         1 297       0.037200
     26 H6A          1.9170     1.1230    -0.8650 hc         1 297       0.037200
     27 H7           0.6450    -1.0440    -0.8900 hc         1 297       0.037200
     28 H7A          0.6420    -1.0630     0.8740 hc         1 297       0.037200
     29 H8          -0.6620     1.0850     0.8940 hc         1 297       0.037200
     30 H8A         -0.6590     1.1040    -0.8700 hc         1 297       0.037200
     31 H9          -1.9310    -1.0630    -0.8950 hc         1 297       0.037200
     32 H9A         -1.9340    -1.0820     0.8690 hc         1 297       0.037200
     33 H10         -3.2380     1.0660     0.8890 hc         1 297       0.038200
     34 H10A        -3.2350     1.0850    -0.8750 hc         1 297       0.038200
     35 H11         -4.5070    -1.0820    -0.9010 hc         1 297       0.036200
     36 H11A        -4.5110    -1.1010     0.8630 hc         1 297       0.036200
     37 H12         -5.8160     1.0450     0.8840 hc         1 297       0.045700
     38 H12A        -5.8130     1.0630    -0.8810 hc         1 297       0.045700
     39 H13         -7.0950    -1.0970    -0.9160 h1         1 297       0.025700
     40 H13A        -7.1000    -1.1160     0.8670 h1         1 297       0.025700
     41 HN14        -9.1270    -0.2490     0.0420 hn         1 297       0.390500
     42 HN1B        -8.3430     0.8970     0.8640 hn         1 297       0.390500
@<TRIPOS>BOND
     1     1     2 1   
     2     1    15 1   
     3     1    16 1   
     4     2     3 1   
     5     2    17 1   
     6     2    18 1   
     7     3     4 1   
     8     3    19 1   
     9     3    20 1   
    10     4     5 1   
    11     4    21 1   
    12     4    22 1   
    13     5     6 1   
    14     5    23 1   
    15     5    24 1   
    16     6     7 1   
    17     6    25 1   
    18     6    26 1   
    19     7     8 1   
    20     7    27 1   
    21     7    28 1   
    22     8     9 1   
    23     8    29 1   
    24     8    30 1   
    25     9    10 1   
    26     9    31 1   
    27     9    32 1   
    28    10    11 1   
    29    10    33 1   
    30    10    34 1   
    31    11    12 1   
    32    11    35 1   
    33    11    36 1   
    34    12    13 1   
    35    12    37 1   
    36    12    38 1   
    37    13    14 1   
    38    13    39 1   
    39    13    40 1   
    40    14    41 1   
    41    14    42 1   
@<TRIPOS>SUBSTRUCTURE
     1 297         1 TEMP              0 ****  ****    0 ROOT
