@<TRIPOS>MOLECULE
298
   34    33     1     0     0
SMALL
No Charge or Current Charge


@<TRIPOS>ATOM
      1 C1           4.4900     3.0860    -0.3580 c3         1 298      -0.066400
      2 C2           4.7790     1.6710     0.0930 c2         1 298      -0.178700
      3 C3           3.8990     0.6460     0.0460 ce         1 298      -0.315600
      4 C4           4.2060    -0.7220     0.4870 ce         1 298       0.466000
      5 N5           3.3100    -1.6560     0.4000 n2         1 298      -0.585900
      6 C6           1.9410    -1.4670     0.9040 c3         1 298       0.102300
      7 C7           0.9230    -1.6040    -0.2480 c3         1 298      -0.077900
      8 C8          -0.5380    -1.4120     0.2150 c3         1 298      -0.077900
      9 C9          -1.5560    -1.5510    -0.9370 c3         1 298       0.102300
     10 N10         -2.9240    -1.3710    -0.4370 n2         1 298      -0.585900
     11 C11         -3.4570    -0.1920    -0.4070 ce         1 298       0.466000
     12 C12         -4.8250    -0.0650     0.1050 ce         1 298      -0.315600
     13 C13         -5.5160     1.0950     0.2080 c2         1 298      -0.178700
     14 C14         -5.0170     2.4710    -0.1820 c3         1 298      -0.066400
     15 H1           4.2230     3.1130    -1.4220 hc         1 298       0.044200
     16 H1A          3.6570     3.5180     0.2090 hc         1 298       0.044200
     17 H1B          5.3630     3.7340    -0.2160 hc         1 298       0.044200
     18 H2           5.7910     1.5200     0.4790 ha         1 298       0.169000
     19 H3           2.8960     0.8130    -0.3450 ha         1 298       0.186000
     20 H4           5.2350    -0.9540     0.7660 h4         1 298      -0.014200
     21 H6           1.7150    -2.2240     1.6660 h1         1 298       0.042950
     22 H6A          1.8180    -0.4840     1.3800 h1         1 298       0.042950
     23 H7           1.1530    -0.8660    -1.0270 hc         1 298       0.047700
     24 H7A          1.0290    -2.5960    -0.7050 hc         1 298       0.047700
     25 H8          -0.7690    -2.1520     0.9910 hc         1 298       0.047700
     26 H8A         -0.6410    -0.4210     0.6740 hc         1 298       0.047700
     27 H9          -1.3210    -0.8120    -1.7170 h1         1 298       0.042950
     28 H9A         -1.4480    -2.5460    -1.3880 h1         1 298       0.042950
     29 H11         -2.9230     0.7000    -0.7400 h4         1 298      -0.014200
     30 H12         -5.2900    -1.0000     0.4200 ha         1 298       0.186000
     31 H13         -6.5350     1.0880     0.6040 ha         1 298       0.169000
     32 H14         -4.1240     2.7450     0.3920 hc         1 298       0.044200
     33 H14A        -4.7610     2.5120    -1.2470 hc         1 298       0.044200
     34 H14B        -5.7810     3.2350     0.0060 hc         1 298       0.044200
@<TRIPOS>BOND
     1     1     2 1   
     2     1    15 1   
     3     1    16 1   
     4     1    17 1   
     5     2     3 2   
     6     2    18 1   
     7     3     4 1   
     8     3    19 1   
     9     4     5 2   
    10     4    20 1   
    11     5     6 1   
    12     6     7 1   
    13     6    21 1   
    14     6    22 1   
    15     7     8 1   
    16     7    23 1   
    17     7    24 1   
    18     8     9 1   
    19     8    25 1   
    20     8    26 1   
    21     9    10 1   
    22     9    27 1   
    23     9    28 1   
    24    10    11 2   
    25    11    12 1   
    26    11    29 1   
    27    12    13 2   
    28    12    30 1   
    29    13    14 1   
    30    13    31 1   
    31    14    32 1   
    32    14    33 1   
    33    14    34 1   
@<TRIPOS>SUBSTRUCTURE
     1 298         1 TEMP              0 ****  ****    0 ROOT
