@<TRIPOS>MOLECULE
298
   34    33     1     0     0
SMALL
abcg2


@<TRIPOS>ATOM
      1 C1           4.9950     2.9530    -0.0020 c3         1 298      -0.066400
      2 C2           5.0020     1.4760    -0.1760 c2         1 298      -0.178700
      3 C3           4.0010     0.6540     0.1560 ce         1 298      -0.315600
      4 C4           4.1180    -0.7850    -0.0620 ce         1 298       0.466000
      5 N5           3.3010    -1.7180     0.2080 n2         1 298      -0.585900
      6 C6           2.0230    -1.4300     0.8220 c3         1 298       0.102300
      7 C7           0.9110    -1.4290    -0.2240 c3         1 298      -0.077900
      8 C8          -0.4660    -1.2650     0.4050 c3         1 298      -0.077900
      9 C9          -1.5770    -1.2650    -0.6390 c3         1 298       0.102300
     10 N10         -2.8710    -1.1900    -0.0070 n2         1 298      -0.585900
     11 C11         -3.5880    -0.1700    -0.2420 ce         1 298       0.466000
     12 C12         -4.8970    -0.0150     0.3750 ce         1 298      -0.315600
     13 C13         -5.7240     1.0220     0.1960 c2         1 298      -0.178700
     14 C14         -5.5160     2.2290    -0.6540 c3         1 298      -0.066400
     15 H1           5.1820     3.4550    -0.9530 hc         1 298       0.044200
     16 H1A          4.0510     3.3150     0.4020 hc         1 298       0.044200
     17 H1B          5.7980     3.2630     0.6700 hc         1 298       0.044200
     18 H2           5.9040     1.0480    -0.6070 ha         1 298       0.169000
     19 H3           3.0940     1.0650     0.5840 ha         1 298       0.186000
     20 H4           5.0550    -1.0910    -0.5330 h4         1 298      -0.014200
     21 H6           1.8210    -2.2250     1.5460 h1         1 298       0.042950
     22 H6A          1.9970    -0.4870     1.3790 h1         1 298       0.042950
     23 H7           1.0920    -0.6200    -0.9390 hc         1 298       0.047700
     24 H7A          0.9520    -2.3620    -0.7930 hc         1 298       0.047700
     25 H8          -0.6430    -2.0730     1.1210 hc         1 298       0.047700
     26 H8A         -0.5070    -0.3300     0.9720 hc         1 298       0.047700
     27 H9          -1.4100    -0.4480    -1.3560 h1         1 298       0.042950
     28 H9A         -1.5280    -2.2020    -1.2040 h1         1 298       0.042950
     29 H11         -3.2450     0.6230    -0.9160 h4         1 298      -0.014200
     30 H12         -5.2030    -0.8220     1.0330 ha         1 298       0.186000
     31 H13         -6.6690     0.9950     0.7290 ha         1 298       0.169000
     32 H14         -5.5740     3.1330    -0.0450 hc         1 298       0.044200
     33 H14A        -4.5640     2.2400    -1.1800 hc         1 298       0.044200
     34 H14B        -6.3130     2.3080    -1.3970 hc         1 298       0.044200
@<TRIPOS>BOND
     1     1     2 1   
     2     1    15 1   
     3     1    16 1   
     4     1    17 1   
     5     2     3 2   
     6     2    18 1   
     7     3     4 1   
     8     3    19 1   
     9     4     5 2   
    10     4    20 1   
    11     5     6 1   
    12     6     7 1   
    13     6    21 1   
    14     6    22 1   
    15     7     8 1   
    16     7    23 1   
    17     7    24 1   
    18     8     9 1   
    19     8    25 1   
    20     8    26 1   
    21     9    10 1   
    22     9    27 1   
    23     9    28 1   
    24    10    11 2   
    25    11    12 1   
    26    11    29 1   
    27    12    13 2   
    28    12    30 1   
    29    13    14 1   
    30    13    31 1   
    31    14    32 1   
    32    14    33 1   
    33    14    34 1   
@<TRIPOS>SUBSTRUCTURE
     1 298         1 TEMP              0 ****  ****    0 ROOT
