@<TRIPOS>MOLECULE
299
   23    23     1     0     0
SMALL
No Charge or Current Charge


@<TRIPOS>ATOM
      1 C1          -1.1870    -0.1140     2.2460 ca         1 299      -0.005000
      2 C2           0.0430    -0.3140     2.8950 ca         1 299      -0.231300
      3 C3           1.2420    -0.0990     2.1960 ca         1 299      -0.005000
      4 C4           1.2170     0.2980     0.8440 ca         1 299      -0.286600
      5 C5          -0.0180     0.4580     0.1870 ca         1 299       0.359100
      6 C6          -1.2230     0.2830     0.8940 ca         1 299      -0.286600
      7 C7           0.0760    -0.7360     4.3560 c3         1 299      -0.006800
      8 C11          2.5010     0.5610     0.1100 c          1 299       0.649000
      9 C12         -2.5390     0.5290     0.2140 c          1 299       0.649000
     10 O13         -0.0480     0.8510    -1.1180 os         1 299      -0.422500
     11 P14         -0.0660    -0.2070    -2.3310 p5         1 299       1.227900
     12 O15         -0.0970     0.5340    -3.6220 o          1 299      -0.879167
     13 O16          1.1560    -1.0550    -2.2740 o          1 299      -0.879167
     14 O17         -1.2730    -1.0710    -2.2240 o          1 299      -0.879167
     15 O20          3.6070     0.3820     0.6180 o          1 299      -0.630100
     16 O22         -3.6210     0.3360     0.7680 o          1 299      -0.630100
     17 H1          -2.1130    -0.2600     2.8000 ha         1 299       0.090000
     18 H3           2.1920    -0.2330     2.7110 ha         1 299       0.090000
     19 H71          0.0830     0.1400     5.0150 hc         1 299       0.008700
     20 H72         -0.7990    -1.3440     4.6170 hc         1 299       0.008700
     21 H73          0.9680    -1.3330     4.5800 hc         1 299       0.008700
     22 H11          2.4200     0.9510    -0.9280 h4         1 299       0.025700
     23 H12         -2.5070     0.9200    -0.8260 h4         1 299       0.025700
@<TRIPOS>BOND
     1     1     2 ar  
     2     1     6 ar  
     3     1    17 1   
     4     2     3 ar  
     5     2     7 1   
     6     3     4 ar  
     7     3    18 1   
     8     4     5 ar  
     9     4     8 1   
    10     5     6 ar  
    11     5    10 1   
    12     6     9 1   
    13     7    19 1   
    14     7    20 1   
    15     7    21 1   
    16     8    15 2   
    17     8    22 1   
    18     9    16 2   
    19     9    23 1   
    20    10    11 1   
    21    11    12 1   
    22    11    13 1   
    23    11    14 1   
@<TRIPOS>SUBSTRUCTURE
     1 299         1 TEMP              0 ****  ****    0 ROOT
