@<TRIPOS>MOLECULE
299
   23    23     1     0     0
SMALL
bcc


@<TRIPOS>ATOM
      1 C1          -1.1620    -0.1040     2.1970 ca         1 299      -0.023000
      2 C2           0.0420    -0.3100     2.8610 ca         1 299      -0.231300
      3 C3           1.2130    -0.0930     2.1460 ca         1 299      -0.023000
      4 C4           1.2020     0.3420     0.8230 ca         1 299      -0.286600
      5 C5          -0.0200     0.5770     0.1710 ca         1 299       0.359100
      6 C6          -1.2110     0.3310     0.8750 ca         1 299      -0.286600
      7 C7           0.0750    -0.7340     4.3010 c3         1 299      -0.006800
      8 C11          2.4670     0.5360     0.0990 c          1 299       0.649000
      9 C12         -2.5070     0.5130     0.2050 c          1 299       0.649000
     10 O13         -0.0480     0.9810    -1.0870 os         1 299      -0.422500
     11 P14         -0.0630    -0.3200    -2.3130 p5         1 299       1.227900
     12 O15         -0.0970     0.5160    -3.5730 o          1 299      -0.879167
     13 O16          1.2320    -1.0530    -2.0140 o          1 299      -0.879167
     14 O17         -1.3330    -1.0730    -1.9600 o          1 299      -0.879167
     15 O20          3.5450     0.1740     0.5250 o          1 299      -0.630100
     16 O22         -3.5630     0.1440     0.6760 o          1 299      -0.630100
     17 H1          -2.0950    -0.2840     2.7200 ha         1 299       0.108000
     18 H3           2.1690    -0.2660     2.6290 ha         1 299       0.108000
     19 H71          0.0480     0.1310     4.9670 hc         1 299       0.008700
     20 H72         -0.7790    -1.3620     4.5540 hc         1 299       0.008700
     21 H73          0.9820    -1.2920     4.5320 hc         1 299       0.008700
     22 H11          2.3950     1.0740    -0.8540 h4         1 299       0.025700
     23 H12         -2.4790     1.0480    -0.7520 h4         1 299       0.025700
@<TRIPOS>BOND
     1     1     2 ar  
     2     1     6 ar  
     3     1    17 1   
     4     2     3 ar  
     5     2     7 1   
     6     3     4 ar  
     7     3    18 1   
     8     4     5 ar  
     9     4     8 1   
    10     5     6 ar  
    11     5    10 1   
    12     6     9 1   
    13     7    19 1   
    14     7    20 1   
    15     7    21 1   
    16     8    15 2   
    17     8    22 1   
    18     9    16 2   
    19     9    23 1   
    20    10    11 1   
    21    11    12 1   
    22    11    13 1   
    23    11    14 1   
@<TRIPOS>SUBSTRUCTURE
     1 299         1 TEMP              0 ****  ****    0 ROOT
