@<TRIPOS>MOLECULE
29A
   49    51     1     0     0
SMALL
No Charge or Current Charge


@<TRIPOS>ATOM
      1 C1           5.2580     0.8770     0.1070 ca         1 29A      -0.152300
      2 C2           6.1470     0.4730    -0.9100 ca         1 29A       0.199000
      3 C3           7.5020     0.2510    -0.6260 ca         1 29A      -0.197000
      4 C4           7.9770     0.4300     0.6790 ca         1 29A       0.203000
      5 C5           7.1040     0.8280     1.7020 ca         1 29A      -0.170000
      6 C6           5.7440     1.0520     1.4200 ca         1 29A      -0.033000
      7 C7           3.7840     1.1150    -0.1950 c3         1 29A       0.231900
      8 O8           3.0860    -0.1260    -0.0130 os         1 29A      -0.316100
      9 C9           1.7380    -0.1890    -0.2260 cc         1 29A       0.408700
     10 C10          1.2180    -1.4500    -0.0370 cd         1 29A      -0.161200
     11 C11         -0.2220    -1.6810    -0.2290 c          1 29A       0.584200
     12 N12         -0.9220    -0.5390    -0.5950 n          1 29A      -0.238500
     13 C13         -0.3150     0.6910    -0.7660 cd         1 29A       0.555800
     14 N14          0.9910     0.9060    -0.5930 nc         1 29A      -0.709300
     15 C15         -2.3270    -0.4680    -0.8710 ca         1 29A      -0.005400
     16 C16         -2.8360    -0.8400    -2.1350 ca         1 29A      -0.024300
     17 C17         -4.2210    -0.7590    -2.3650 ca         1 29A      -0.118000
     18 C18         -5.0940    -0.3170    -1.3570 ca         1 29A      -0.069000
     19 C19         -4.5950     0.0550    -0.0860 ca         1 29A      -0.146600
     20 C20         -3.2030    -0.0280     0.1390 ca         1 29A      -0.040000
     21 F21          5.7030     0.2930    -2.1740 f          1 29A      -0.175000
     22 F22          9.2810     0.2160     0.9550 f          1 29A      -0.170000
     23 Cl23         2.1790    -2.8380     0.4270 cl         1 29A      -0.132000
     24 O24         -0.7690    -2.7670    -0.0830 o          1 29A      -0.503000
     25 C25         -1.9120    -1.3240    -3.2480 c3         1 29A      -0.057800
     26 C26         -5.5000     0.5350     1.0310 c          1 29A       0.611700
     27 O27         -5.0640     0.8620     2.1270 o          1 29A      -0.604100
     28 N28         -6.8480     0.5880     0.7570 ns         1 29A      -0.494900
     29 C29         -7.8850     1.0360     1.6950 c3         1 29A       0.100000
     30 C30         -9.0940     1.6700     0.9680 c3         1 29A       0.142600
     31 O31         -9.5850     0.7940    -0.0620 oh         1 29A      -0.668000
     32 HN28        -7.1470     0.3000    -0.1650 hn         1 29A       0.328500
     33 HO31       -10.3660     1.2350    -0.4660 ho         1 29A       0.448000
     34 H3           8.1810    -0.0600    -1.4150 ha         1 29A       0.152000
     35 H5           7.4810     0.9620     2.7130 ha         1 29A       0.140000
     36 H6           5.0700     1.3570     2.2190 ha         1 29A       0.143000
     37 H7           3.3880     1.8840     0.4820 h1         1 29A       0.069200
     38 H7A          3.6640     1.4820    -1.2220 h1         1 29A       0.069200
     39 H13         -0.9510     1.5180    -1.0600 h5         1 29A       0.062800
     40 H17         -4.6300    -1.0420    -3.3330 ha         1 29A       0.123000
     41 H18         -6.1560    -0.2710    -1.5840 ha         1 29A       0.119000
     42 H20         -2.7940     0.2470     1.1100 ha         1 29A       0.148000
     43 H25         -1.4290    -2.2700    -2.9750 hc         1 29A       0.054700
     44 H25A        -2.4570    -1.4940    -4.1840 hc         1 29A       0.054700
     45 H25B        -1.1250    -0.5910    -3.4570 hc         1 29A       0.054700
     46 H29         -8.2250     0.1730     2.2820 h1         1 29A       0.062200
     47 H29A        -7.4630     1.7740     2.3900 h1         1 29A       0.062200
     48 H30         -9.8820     1.8820     1.7030 h1         1 29A       0.031200
     49 H30A        -8.7810     2.6270     0.5300 h1         1 29A       0.031200
@<TRIPOS>BOND
     1     1     2 ar  
     2     1     6 ar  
     3     1     7 1   
     4     2     3 ar  
     5     2    21 1   
     6     3     4 ar  
     7     3    34 1   
     8     4     5 ar  
     9     4    22 1   
    10     5     6 ar  
    11     5    35 1   
    12     6    36 1   
    13     7     8 1   
    14     7    37 1   
    15     7    38 1   
    16     8     9 1   
    17     9    10 2   
    18     9    14 1   
    19    10    11 1   
    20    10    23 1   
    21    11    12 1   
    22    11    24 2   
    23    12    13 1   
    24    12    15 1   
    25    13    14 2   
    26    13    39 1   
    27    15    16 ar  
    28    15    20 ar  
    29    16    17 ar  
    30    16    25 1   
    31    17    18 ar  
    32    17    40 1   
    33    18    19 ar  
    34    18    41 1   
    35    19    20 ar  
    36    19    26 1   
    37    20    42 1   
    38    25    43 1   
    39    25    44 1   
    40    25    45 1   
    41    26    27 2   
    42    26    28 1   
    43    28    29 1   
    44    28    32 1   
    45    29    30 1   
    46    29    46 1   
    47    29    47 1   
    48    30    31 1   
    49    30    48 1   
    50    30    49 1   
    51    31    33 1   
@<TRIPOS>SUBSTRUCTURE
     1 29A         1 TEMP              0 ****  ****    0 ROOT
