@<TRIPOS>MOLECULE
29A
   49    51     1     0     0
SMALL
bcc


@<TRIPOS>ATOM
      1 C1           5.1710     0.6830     0.0680 ca         1 29A      -0.152300
      2 C2           6.1320     1.6400    -0.2240 ca         1 29A       0.163900
      3 C3           7.4750     1.4790     0.0430 ca         1 29A      -0.215000
      4 C4           7.8620     0.2920     0.6350 ca         1 29A       0.167900
      5 C5           6.9560    -0.6990     0.9530 ca         1 29A      -0.188000
      6 C6           5.6140    -0.4920     0.6650 ca         1 29A      -0.051000
      7 C7           3.7360     0.9650    -0.2760 c3         1 29A       0.208700
      8 O8           2.9700    -0.1560     0.1420 os         1 29A      -0.292900
      9 C9           1.6780    -0.1940    -0.1040 cc         1 29A       0.408700
     10 C10          0.9680    -1.2990     0.2900 cd         1 29A      -0.236800
     11 C11         -0.4350    -1.3950     0.0450 c          1 29A       0.726700
     12 N12         -0.9450    -0.2670    -0.6280 n          1 29A      -0.305500
     13 C13         -0.1660     0.7740    -0.9690 cd         1 29A       0.555800
     14 N14          1.1020     0.8480    -0.7330 nc         1 29A      -0.709300
     15 C15         -2.3410    -0.2390    -0.9430 ca         1 29A      -0.005400
     16 C16         -2.8010    -0.9110    -2.0750 ca         1 29A      -0.024300
     17 C17         -4.1640    -0.8380    -2.3410 ca         1 29A      -0.136000
     18 C18         -5.0290    -0.1450    -1.5090 ca         1 29A      -0.087000
     19 C19         -4.5500     0.5140    -0.3820 ca         1 29A      -0.146600
     20 C20         -3.1870     0.4700    -0.1120 ca         1 29A      -0.058000
     21 F21          5.7310     2.7840    -0.8000 f          1 29A      -0.139900
     22 F22          9.1610     0.1060     0.9030 f          1 29A      -0.134900
     23 CL23         1.7280    -2.6100     1.0930 cl         1 29A      -0.056400
     24 O24         -1.1660    -2.3160     0.3520 o          1 29A      -0.578500
     25 C25         -1.8800    -1.6840    -2.9670 c3         1 29A      -0.057800
     26 C26         -5.4270     1.2990     0.5410 c          1 29A       0.678700
     27 O27         -4.9770     2.2280     1.1990 o          1 29A      -0.604100
     28 N28         -6.7120     0.9200     0.5920 ns         1 29A      -0.561900
     29 C29         -7.6830     1.5590     1.4530 c3         1 29A       0.100000
     30 C30         -9.0870     1.2250     1.0030 c3         1 29A       0.119400
     31 O31         -9.2550    -0.1750     1.0580 oh         1 29A      -0.605800
     32 HN28        -6.9790     0.0360     0.1870 hn         1 29A       0.328500
     33 HO31       -10.0730    -0.4030     0.6080 ho         1 29A       0.409000
     34 H3           8.1920     2.2520    -0.2040 ha         1 29A       0.170000
     35 H5           7.2860    -1.6190     1.4150 ha         1 29A       0.158000
     36 H6           4.9080    -1.2720     0.9130 ha         1 29A       0.161000
     37 H7           3.3850     1.8700     0.2280 h1         1 29A       0.069200
     38 H7A          3.6210     1.1220    -1.3520 h1         1 29A       0.069200
     39 H13         -0.6590     1.5930    -1.4770 h5         1 29A       0.062800
     40 H17         -4.5570    -1.3300    -3.2210 ha         1 29A       0.141000
     41 H18         -6.0790    -0.1040    -1.7730 ha         1 29A       0.137000
     42 H20         -2.7840     0.9790     0.7540 ha         1 29A       0.166000
     43 H25         -1.5630    -2.6110    -2.4860 hc         1 29A       0.054700
     44 H25A        -2.3780    -1.9490    -3.8970 hc         1 29A       0.054700
     45 H25B        -0.9790    -1.1240    -3.2180 hc         1 29A       0.054700
     46 H29         -7.5380     1.2580     2.4960 h1         1 29A       0.062200
     47 H29A        -7.5530     2.6400     1.4100 h1         1 29A       0.062200
     48 H30         -9.7910     1.7470     1.6610 h1         1 29A       0.031200
     49 H30A        -9.2430     1.6100    -0.0120 h1         1 29A       0.031200
@<TRIPOS>BOND
     1     1     2 ar  
     2     1     6 ar  
     3     1     7 1   
     4     2     3 ar  
     5     2    21 1   
     6     3     4 ar  
     7     3    34 1   
     8     4     5 ar  
     9     4    22 1   
    10     5     6 ar  
    11     5    35 1   
    12     6    36 1   
    13     7     8 1   
    14     7    37 1   
    15     7    38 1   
    16     8     9 1   
    17     9    10 2   
    18     9    14 1   
    19    10    11 1   
    20    10    23 1   
    21    11    12 1   
    22    11    24 2   
    23    12    13 1   
    24    12    15 1   
    25    13    14 2   
    26    13    39 1   
    27    15    16 ar  
    28    15    20 ar  
    29    16    17 ar  
    30    16    25 1   
    31    17    18 ar  
    32    17    40 1   
    33    18    19 ar  
    34    18    41 1   
    35    19    20 ar  
    36    19    26 1   
    37    20    42 1   
    38    25    43 1   
    39    25    44 1   
    40    25    45 1   
    41    26    27 2   
    42    26    28 1   
    43    28    29 1   
    44    28    32 1   
    45    29    30 1   
    46    29    46 1   
    47    29    47 1   
    48    30    31 1   
    49    30    48 1   
    50    30    49 1   
    51    31    33 1   
@<TRIPOS>SUBSTRUCTURE
     1 29A         1 TEMP              0 ****  ****    0 ROOT
