@<TRIPOS>MOLECULE
29B
   28    30     1     0     0
SMALL
No Charge or Current Charge


@<TRIPOS>ATOM
      1 C1           2.5760    -1.0470     0.8450 ca         1 29B      -0.152500
      2 C2           3.6890    -0.5130     0.1800 ca         1 29B       0.171000
      3 C3           3.5610     0.6610    -0.5750 ca         1 29B      -0.152500
      4 C4           2.3120     1.3000    -0.6730 ca         1 29B      -0.076000
      5 C5           1.1750     0.7620    -0.0290 ca         1 29B      -0.016000
      6 C6           1.3270    -0.4090     0.7460 ca         1 29B      -0.076000
      7 C7          -0.1230     1.4480    -0.1180 cc         1 29B      -0.138000
      8 C8          -1.4600     1.0050     0.0730 cc         1 29B       0.306500
      9 N9          -2.3140     2.0140     0.1480 nd         1 29B      -0.508800
     10 N10         -1.5040     3.1400     0.0220 na         1 29B       0.007800
     11 C11         -0.1550     2.8120    -0.1290 cd         1 29B      -0.161000
     12 C12         -1.9520    -0.3860     0.0190 ca         1 29B      -0.080500
     13 C13         -1.2510    -1.4130    -0.6520 ca         1 29B      -0.144000
     14 C14         -1.7980    -2.7060    -0.7250 ca         1 29B       0.328400
     15 N15         -3.0000    -3.0300    -0.1980 nb         1 29B      -0.662000
     16 C16         -3.7000    -2.0450     0.4100 ca         1 29B       0.328400
     17 C17         -3.2270    -0.7270     0.5250 ca         1 29B      -0.144000
     18 F18          4.8890    -1.1250     0.2770 f          1 29B      -0.179000
     19 HN10        -1.8950     4.0820     0.0570 hn         1 29B       0.377000
     20 H1           2.6840    -1.9480     1.4430 ha         1 29B       0.133000
     21 H3           4.4290     1.0740    -1.0830 ha         1 29B       0.133000
     22 H4           2.2290     2.2040    -1.2710 ha         1 29B       0.120500
     23 H6           0.4830    -0.8150     1.2980 ha         1 29B       0.120500
     24 H11          0.6340     3.5550    -0.1750 h4         1 29B       0.160000
     25 H13         -0.3050    -1.2210    -1.1470 ha         1 29B       0.132000
     26 H14         -1.2620    -3.5040    -1.2370 h4         1 29B       0.019100
     27 H16         -4.6730    -2.3210     0.8140 h4         1 29B       0.019100
     28 H17         -3.8480     0.0130     1.0210 ha         1 29B       0.132000
@<TRIPOS>BOND
     1     1     2 ar  
     2     1     6 ar  
     3     1    20 1   
     4     2     3 ar  
     5     2    18 1   
     6     3     4 ar  
     7     3    21 1   
     8     4     5 ar  
     9     4    22 1   
    10     5     6 ar  
    11     5     7 1   
    12     6    23 1   
    13     7     8 1   
    14     7    11 2   
    15     8     9 2   
    16     8    12 1   
    17     9    10 1   
    18    10    11 1   
    19    10    19 1   
    20    11    24 1   
    21    12    13 ar  
    22    12    17 ar  
    23    13    14 ar  
    24    13    25 1   
    25    14    15 ar  
    26    14    26 1   
    27    15    16 ar  
    28    16    17 ar  
    29    16    27 1   
    30    17    28 1   
@<TRIPOS>SUBSTRUCTURE
     1 29B         1 TEMP              0 ****  ****    0 ROOT
