@<TRIPOS>MOLECULE
29B
   28    30     1     0     0
SMALL
bcc


@<TRIPOS>ATOM
      1 C1           2.5520    -0.9770     1.0240 ca         1 29B      -0.170500
      2 C2           3.5880    -0.5830     0.2000 ca         1 29B       0.135900
      3 C3           3.4580     0.4670    -0.6880 ca         1 29B      -0.170500
      4 C4           2.2430     1.1350    -0.7520 ca         1 29B      -0.094000
      5 C5           1.1730     0.7690     0.0640 ca         1 29B      -0.016000
      6 C6           1.3490    -0.2920     0.9540 ca         1 29B      -0.094000
      7 C7          -0.0940     1.5040     0.0090 cc         1 29B      -0.203300
      8 C8          -1.4260     1.0200    -0.0240 cc         1 29B       0.371800
      9 N9          -2.2940     2.0210    -0.0060 nd         1 29B      -0.508800
     10 N10         -1.5600     3.1190     0.0300 na         1 29B       0.007400
     11 C11         -0.2420     2.8750     0.0400 cd         1 29B      -0.128300
     12 C12         -1.9130    -0.3590    -0.1010 ca         1 29B      -0.080500
     13 C13         -1.2300    -1.3390    -0.8190 ca         1 29B      -0.227300
     14 C14         -1.7530    -2.6210    -0.8720 ca         1 29B       0.393700
     15 N15         -2.8830    -2.9820    -0.2750 nb         1 29B      -0.662000
     16 C16         -3.5370    -2.0460     0.4040 ca         1 29B       0.393700
     17 C17         -3.1010    -0.7360     0.5210 ca         1 29B      -0.227300
     18 F18          4.7570    -1.2400     0.2660 f          1 29B      -0.143900
     19 HN10        -2.0090     4.0210     0.0450 hn         1 29B       0.326700
     20 H1           2.6800    -1.7990     1.7170 ha         1 29B       0.151000
     21 H3           4.2830     0.7550    -1.3260 ha         1 29B       0.151000
     22 H4           2.1280     1.9470    -1.4580 ha         1 29B       0.138500
     23 H6           0.5410    -0.5850     1.6110 ha         1 29B       0.138500
     24 H11          0.4880     3.6660     0.0910 h4         1 29B       0.178000
     25 H13         -0.3120    -1.1150    -1.3440 ha         1 29B       0.150000
     26 H14         -1.2320    -3.3900    -1.4300 h4         1 29B       0.019100
     27 H16         -4.4580    -2.3510     0.8870 h4         1 29B       0.019100
     28 H17         -3.6760    -0.0250     1.0990 ha         1 29B       0.150000
@<TRIPOS>BOND
     1     1     2 ar  
     2     1     6 ar  
     3     1    20 1   
     4     2     3 ar  
     5     2    18 1   
     6     3     4 ar  
     7     3    21 1   
     8     4     5 ar  
     9     4    22 1   
    10     5     6 ar  
    11     5     7 1   
    12     6    23 1   
    13     7     8 1   
    14     7    11 2   
    15     8     9 2   
    16     8    12 1   
    17     9    10 1   
    18    10    11 1   
    19    10    19 1   
    20    11    24 1   
    21    12    13 ar  
    22    12    17 ar  
    23    13    14 ar  
    24    13    25 1   
    25    14    15 ar  
    26    14    26 1   
    27    15    16 ar  
    28    16    17 ar  
    29    16    27 1   
    30    17    28 1   
@<TRIPOS>SUBSTRUCTURE
     1 29B         1 TEMP              0 ****  ****    0 ROOT
