@<TRIPOS>MOLECULE
29C
   79    81     1     0     0
SMALL
No Charge or Current Charge


@<TRIPOS>ATOM
      1 O4          33.3670    51.7850    50.3000 o          1 29C      -0.498000
      2 C4          33.6200    52.4980    49.3370 c          1 29C       0.493500
      3 C4A         32.6940    53.5370    48.7660 ca         1 29C       0.155500
      4 N3          34.8050    52.4030    48.6860 ns         1 29C      -0.461400
      5 C8A         33.1590    54.2900    47.6410 ca         1 29C       0.319000
      6 N5          31.4630    53.7280    49.3290 nb         1 29C      -0.567000
      7 C2          35.1400    53.1650    47.6320 cc         1 29C       0.742800
      8 N8          32.3470    55.2340    47.1110 nb         1 29C      -0.115000
      9 N1          34.4340    54.0960    47.0530 nd         1 29C      -0.769700
     10 C6          30.6790    54.6780    48.7650 ca         1 29C       0.239300
     11 N2          36.3260    52.9480    47.1140 nv         1 29C      -1.065200
     12 C7          31.1300    55.4260    47.6610 ca         1 29C       0.098900
     13 C9          29.2840    54.9120    49.3690 c3         1 29C       0.189500
     14 N10         28.1810    54.8580    48.3710 nu         1 29C      -0.981200
     15 CBP         27.8680    53.7950    47.5250 ca         1 29C       0.291000
     16 CAN         28.3100    52.4900    47.7860 ca         1 29C      -0.198000
     17 CAO         27.0900    54.0410    46.3870 ca         1 29C      -0.198000
     18 CAP         27.9820    51.4390    46.9120 ca         1 29C      -0.032500
     19 CAQ         26.7560    52.9960    45.5060 ca         1 29C      -0.032500
     20 CBQ         27.2020    51.6760    45.7580 ca         1 29C      -0.146600
     21 CBN         26.8670    50.5180    44.8390 c          1 29C       0.596700
     22 OAH         27.2410    49.3750    45.0750 o          1 29C      -0.642100
     23 NBG         26.1210    50.8140    43.7150 ns         1 29C      -0.445900
     24 CBX         25.6590    49.8380    42.6970 c3         1 29C      -0.049300
     25 CBK         25.7830    50.4530    41.2690 c          1 29C       0.715000
     26 OAE         26.3650    49.8060    40.4100 o          1 29C      -0.738000
     27 CAX         24.2120    49.3470    42.9700 c3         1 29C      -0.060400
     28 CAU         24.0280    48.6040    44.3170 c3         1 29C      -0.159400
     29 CBM         22.6040    48.0530    44.4640 c          1 29C       0.596100
     30 OAG         21.6430    48.7700    44.7090 o          1 29C      -0.650100
     31 OAL         25.3840    51.5970    41.0900 o          1 29C      -0.738000
     32 NBF         22.4970    46.6850    44.3390 ns         1 29C      -0.457900
     33 CBW         21.2370    45.9090    44.4260 c3         1 29C      -0.029300
     34 CBJ         21.5440    44.4260    44.8170 c          1 29C       0.727000
     35 OAK         22.3820    43.8120    44.1690 o          1 29C      -0.748000
     36 CAW         20.4140    46.0230    43.1150 c3         1 29C      -0.067400
     37 CAT         19.0280    45.3360    43.1820 c3         1 29C      -0.145400
     38 CBL         18.2320    45.5440    41.8870 c          1 29C       0.595100
     39 OAF         18.4980    44.9500    40.8500 o          1 29C      -0.672100
     40 OAD         21.0200    43.9730    45.8260 o          1 29C      -0.748000
     41 N           17.1790    46.4270    41.9900 ns         1 29C      -0.455900
     42 CA          16.2210    46.7660    40.9080 c3         1 29C      -0.042300
     43 C           15.5120    48.1340    41.1880 c          1 29C       0.720000
     44 O           15.1970    48.8230    40.2270 o          1 29C      -0.746500
     45 CB          15.2050    45.6220    40.6330 c3         1 29C      -0.039400
     46 CG          14.3260    45.2150    41.8460 c3         1 29C      -0.200400
     47 CD          13.3470    44.1000    41.4410 c          1 29C       0.714000
     48 OE2         12.2590    44.4210    40.9870 o          1 29C      -0.778000
     49 OE1         13.7110    42.9390    41.5510 o          1 29C      -0.778000
     50 OXT         15.4100    48.5250    42.3440 o          1 29C      -0.746500
     51 H4          35.4710    51.7380    49.0430 hn         1 29C       0.317500
     52 H2          36.4480    53.4150    46.2250 hn         1 29C       0.506000
     53 H3          36.6670    51.9950    47.1430 hn         1 29C       0.506000
     54 H1          30.5070    56.1930    47.2050 h4         1 29C       0.034100
     55 H5          29.1070    54.1650    50.1560 h1         1 29C       0.061200
     56 H6          29.2880    55.8940    49.8640 h1         1 29C       0.061200
     57 H7          27.7410    55.7490    48.1270 hn         1 29C       0.468000
     58 H10         28.9070    52.2760    48.6680 ha         1 29C       0.100000
     59 H8          26.7400    55.0480    46.1760 ha         1 29C       0.100000
     60 H11         28.3380    50.4350    47.1380 ha         1 29C       0.133500
     61 H9          26.1500    53.2350    44.6360 ha         1 29C       0.133500
     62 H12         25.8820    51.7860    43.5680 hn         1 29C       0.325500
     63 H13         26.3270    48.9670    42.7220 h1         1 29C       0.061700
     64 H15         23.5260    50.2030    42.9320 hc         1 29C       0.056700
     65 H16         23.9150    48.6740    42.1550 hc         1 29C       0.056700
     66 H17         24.7540    47.7840    44.3600 hc         1 29C       0.046200
     67 H18         24.2130    49.3080    45.1360 hc         1 29C       0.046200
     68 H19         23.3530    46.1760    44.1520 hn         1 29C       0.299500
     69 H20         20.6400    46.3380    45.2420 h1         1 29C       0.049700
     70 H22         20.2650    47.0840    42.8780 hc         1 29C       0.047700
     71 H23         20.9930    45.5940    42.2870 hc         1 29C       0.047700
     72 H24         18.4760    45.7540    44.0320 hc         1 29C       0.052200
     73 H25         19.1750    44.2600    43.3300 hc         1 29C       0.052200
     74 H26         17.0450    46.8760    42.8890 hn         1 29C       0.301500
     75 H27         16.8100    46.9100    39.9920 h1         1 29C       0.034700
     76 H29         15.7500    44.7390    40.2800 hc         1 29C       0.022700
     77 H30         14.5520    45.9280    39.8060 hc         1 29C       0.022700
     78 H31         13.7710    46.1140    42.1380 hc         1 29C       0.032200
     79 H32         15.0150    44.8500    42.6170 hc         1 29C       0.032200
@<TRIPOS>BOND
     1     1     2 2   
     2     2     3 1   
     3     2     4 1   
     4     3     5 ar  
     5     3     6 ar  
     6     4     7 1   
     7     4    51 1   
     8     5     8 ar  
     9     5     9 1   
    10     6    10 ar  
    11     7     9 2   
    12     7    11 1   
    13     8    12 ar  
    14    10    12 ar  
    15    10    13 1   
    16    11    52 1   
    17    11    53 1   
    18    12    54 1   
    19    13    14 1   
    20    13    55 1   
    21    13    56 1   
    22    14    15 1   
    23    14    57 1   
    24    15    16 ar  
    25    15    17 ar  
    26    16    18 ar  
    27    16    58 1   
    28    17    19 ar  
    29    17    59 1   
    30    18    20 ar  
    31    18    60 1   
    32    19    20 ar  
    33    19    61 1   
    34    20    21 1   
    35    21    22 2   
    36    21    23 1   
    37    23    24 1   
    38    23    62 1   
    39    24    25 1   
    40    24    27 1   
    41    24    63 1   
    42    25    26 1   
    43    25    31 1   
    44    27    28 1   
    45    27    64 1   
    46    27    65 1   
    47    28    29 1   
    48    28    66 1   
    49    28    67 1   
    50    29    30 2   
    51    29    32 1   
    52    32    33 1   
    53    32    68 1   
    54    33    34 1   
    55    33    36 1   
    56    33    69 1   
    57    34    35 1   
    58    34    40 1   
    59    36    37 1   
    60    36    70 1   
    61    36    71 1   
    62    37    38 1   
    63    37    72 1   
    64    37    73 1   
    65    38    39 2   
    66    38    41 1   
    67    41    42 1   
    68    41    74 1   
    69    42    43 1   
    70    42    45 1   
    71    42    75 1   
    72    43    44 1   
    73    43    50 1   
    74    45    46 1   
    75    45    76 1   
    76    45    77 1   
    77    46    47 1   
    78    46    78 1   
    79    46    79 1   
    80    47    48 1   
    81    47    49 1   
@<TRIPOS>SUBSTRUCTURE
     1 29C         1 TEMP              0 ****  ****    0 ROOT
