@<TRIPOS>MOLECULE
29C
   79    81     1     0     0
SMALL
abcg2


@<TRIPOS>ATOM
      1 O4          34.5940    51.0470    46.7350 o          1 29C      -0.498000
      2 C4          34.2990    52.2200    46.6490 c          1 29C       0.493500
      3 C4A         33.2140    52.8830    47.3720 ca         1 29C       0.155500
      4 N3          34.9900    53.0820    45.8220 ns         1 29C      -0.461400
      5 C8A         32.9980    54.2540    47.1660 ca         1 29C       0.319000
      6 N5          32.4640    52.1550    48.1940 nb         1 29C      -0.567000
      7 C2          34.7070    54.4140    45.6830 cc         1 29C       0.742800
      8 N8          32.0010    54.8690    47.8260 nb         1 29C      -0.115000
      9 N1          33.7410    55.0090    46.3280 nd         1 29C      -0.769700
     10 C6          31.4880    52.7610    48.8310 ca         1 29C       0.239300
     11 N2          35.4800    55.1140    44.8530 nv         1 29C      -1.065200
     12 C7          31.2700    54.1380    48.6310 ca         1 29C       0.098900
     13 C9          30.6220    51.9580    49.7710 c3         1 29C       0.189500
     14 N10         29.2160    52.2250    49.6390 nu         1 29C      -0.981200
     15 CBP         28.5120    51.9840    48.4940 ca         1 29C       0.291000
     16 CAN         29.0250    51.2030    47.4470 ca         1 29C      -0.198000
     17 CAO         27.2140    52.5010    48.3540 ca         1 29C      -0.198000
     18 CAP         28.2610    50.9510    46.3230 ca         1 29C      -0.032500
     19 CAQ         26.4730    52.2560    47.2170 ca         1 29C      -0.032500
     20 CBQ         26.9820    51.4810    46.1720 ca         1 29C      -0.146600
     21 CBN         26.2110    51.1680    44.9360 c          1 29C       0.596700
     22 OAH         26.4560    50.1630    44.2750 o          1 29C      -0.642100
     23 NBG         25.2500    52.0490    44.6140 ns         1 29C      -0.445900
     24 CBX         24.4160    51.9790    43.4370 c3         1 29C      -0.049300
     25 CBK         24.2710    53.3950    42.8160 c          1 29C       0.715000
     26 OAE         23.7960    53.4300    41.6680 o          1 29C      -0.738000
     27 CAX         23.0230    51.4330    43.7690 c3         1 29C      -0.060400
     28 CAU         23.0370    50.0200    44.3410 c3         1 29C      -0.159400
     29 CBM         21.6590    49.5690    44.7740 c          1 29C       0.596100
     30 OAG         20.9420    50.2750    45.4760 o          1 29C      -0.650100
     31 OAL         24.6110    54.3590    43.5300 o          1 29C      -0.738000
     32 NBF         21.2750    48.3590    44.3470 ns         1 29C      -0.457900
     33 CBW         20.0340    47.7470    44.7730 c3         1 29C      -0.029300
     34 CBJ         20.0010    47.4740    46.3010 c          1 29C       0.727000
     35 OAK         21.0710    47.1150    46.8230 o          1 29C      -0.748000
     36 CAW         19.8570    46.4440    43.9950 c3         1 29C      -0.067400
     37 CAT         18.5070    45.7690    44.2370 c3         1 29C      -0.145400
     38 CBL         18.3730    44.5540    43.3440 c          1 29C       0.595100
     39 OAF         19.0600    43.5540    43.5250 o          1 29C      -0.672100
     40 OAD         18.8880    47.5970    46.8490 o          1 29C      -0.748000
     41 N           17.4670    44.6570    42.3610 ns         1 29C      -0.455900
     42 CA          17.3890    43.7150    41.2670 c3         1 29C      -0.042300
     43 C           18.5390    43.8960    40.2370 c          1 29C       0.720000
     44 O           18.6050    43.0020    39.3700 o          1 29C      -0.746500
     45 CB          16.0180    43.7950    40.5880 c3         1 29C      -0.039400
     46 CG          15.7410    45.0900    39.8380 c3         1 29C      -0.200400
     47 CD          14.3700    45.1640    39.1310 c          1 29C       0.714000
     48 OE2         13.7460    44.0980    38.9630 o          1 29C      -0.778000
     49 OE1         14.0120    46.3010    38.7590 o          1 29C      -0.778000
     50 OXT         19.2670    44.8980    40.3470 o          1 29C      -0.746500
     51 H4          35.7570    52.6800    45.2950 hn         1 29C       0.317500
     52 H2          35.2550    56.0800    44.6890 hn         1 29C       0.506000
     53 H3          36.1780    54.6900    44.2670 hn         1 29C       0.506000
     54 H1          30.4660    54.6430    49.1560 h4         1 29C       0.034100
     55 H5          30.8400    50.8970    49.6220 h1         1 29C       0.061200
     56 H6          30.8970    52.1830    50.8030 h1         1 29C       0.061200
     57 H7          28.8220    52.8940    50.2790 hn         1 29C       0.468000
     58 H10         30.0190    50.7810    47.5050 ha         1 29C       0.100000
     59 H8          26.7880    53.0970    49.1530 ha         1 29C       0.100000
     60 H11         28.6800    50.3350    45.5380 ha         1 29C       0.133500
     61 H9          25.4710    52.6630    47.1660 ha         1 29C       0.133500
     62 H12         25.2500    52.9620    45.0470 hn         1 29C       0.325500
     63 H13         24.8920    51.3200    42.7060 h1         1 29C       0.061700
     64 H15         22.5420    52.1090    44.4800 hc         1 29C       0.056700
     65 H16         22.4200    51.4510    42.8580 hc         1 29C       0.056700
     66 H17         23.4720    49.3260    43.6180 hc         1 29C       0.046200
     67 H18         23.6720    49.9860    45.2300 hc         1 29C       0.046200
     68 H19         21.9300    47.8040    43.8200 hn         1 29C       0.299500
     69 H20         19.2070    48.4170    44.5160 h1         1 29C       0.049700
     70 H22         19.9570    46.6540    42.9250 hc         1 29C       0.047700
     71 H23         20.6640    45.7530    44.2550 hc         1 29C       0.047700
     72 H24         17.7010    46.4850    44.0580 hc         1 29C       0.052200
     73 H25         18.4230    45.4460    45.2750 hc         1 29C       0.052200
     74 H26         17.0390    45.5590    42.2280 hn         1 29C       0.301500
     75 H27         17.4800    42.7130    41.6930 h1         1 29C       0.034700
     76 H29         15.2440    43.6320    41.3450 hc         1 29C       0.022700
     77 H30         15.9410    42.9560    39.8960 hc         1 29C       0.022700
     78 H31         16.5090    45.2420    39.0700 hc         1 29C       0.032200
     79 H32         15.8250    45.9590    40.4980 hc         1 29C       0.032200
@<TRIPOS>BOND
     1     1     2 2   
     2     2     3 1   
     3     2     4 1   
     4     3     5 ar  
     5     3     6 ar  
     6     4     7 1   
     7     4    51 1   
     8     5     8 ar  
     9     5     9 1   
    10     6    10 ar  
    11     7     9 2   
    12     7    11 1   
    13     8    12 ar  
    14    10    12 ar  
    15    10    13 1   
    16    11    52 1   
    17    11    53 1   
    18    12    54 1   
    19    13    14 1   
    20    13    55 1   
    21    13    56 1   
    22    14    15 1   
    23    14    57 1   
    24    15    16 ar  
    25    15    17 ar  
    26    16    18 ar  
    27    16    58 1   
    28    17    19 ar  
    29    17    59 1   
    30    18    20 ar  
    31    18    60 1   
    32    19    20 ar  
    33    19    61 1   
    34    20    21 1   
    35    21    22 2   
    36    21    23 1   
    37    23    24 1   
    38    23    62 1   
    39    24    25 1   
    40    24    27 1   
    41    24    63 1   
    42    25    26 1   
    43    25    31 1   
    44    27    28 1   
    45    27    64 1   
    46    27    65 1   
    47    28    29 1   
    48    28    66 1   
    49    28    67 1   
    50    29    30 2   
    51    29    32 1   
    52    32    33 1   
    53    32    68 1   
    54    33    34 1   
    55    33    36 1   
    56    33    69 1   
    57    34    35 1   
    58    34    40 1   
    59    36    37 1   
    60    36    70 1   
    61    36    71 1   
    62    37    38 1   
    63    37    72 1   
    64    37    73 1   
    65    38    39 2   
    66    38    41 1   
    67    41    42 1   
    68    41    74 1   
    69    42    43 1   
    70    42    45 1   
    71    42    75 1   
    72    43    44 1   
    73    43    50 1   
    74    45    46 1   
    75    45    76 1   
    76    45    77 1   
    77    46    47 1   
    78    46    78 1   
    79    46    79 1   
    80    47    48 1   
    81    47    49 1   
@<TRIPOS>SUBSTRUCTURE
     1 29C         1 TEMP              0 ****  ****    0 ROOT
