@<TRIPOS>MOLECULE
29D
   94    96     1     0     0
SMALL
bcc


@<TRIPOS>ATOM
      1 O4          31.4130    47.8930    47.1150 o          1 29D      -0.549500
      2 C4          32.1230    48.8440    46.8700 c          1 29D       0.632000
      3 C4A         31.9100    50.2150    47.3390 ca         1 29D       0.169500
      4 N3          33.2570    48.7190    46.0940 ns         1 29D      -0.528400
      5 C8A         32.8340    51.2090    46.9710 ca         1 29D       0.571000
      6 N5          30.8500    50.4690    48.0980 nb         1 29D      -0.561000
      7 C2          34.1010    49.7510    45.7840 cc         1 29D       0.739800
      8 N8          32.6450    52.4670    47.4010 nb         1 29D      -0.650000
      9 N1          33.9180    50.9740    46.2000 nd         1 29D      -0.775700
     10 C6          30.6770    51.7020    48.5190 ca         1 29D       0.247300
     11 N2          35.1580    49.4550    45.0280 nv         1 29D      -0.962800
     12 C7          31.5970    52.7010    48.1530 ca         1 29D       0.358900
     13 C9          29.5000    51.9760    49.4270 c3         1 29D       0.192500
     14 N10         29.0790    53.3440    49.4750 nu         1 29D      -0.798600
     15 CBX         28.5150    54.0030    48.4210 ca         1 29D       0.142600
     16 CAQ         28.1140    53.3460    47.2490 ca         1 29D      -0.222500
     17 CAR         28.3000    55.3890    48.4990 ca         1 29D      -0.222500
     18 CAS         27.5150    54.0470    46.2160 ca         1 29D      -0.045500
     19 CAT         27.7050    56.0710    47.4620 ca         1 29D      -0.045500
     20 CBY         27.2990    55.4230    46.2920 ca         1 29D      -0.137600
     21 CBV         26.6540    56.2390    45.2230 c          1 29D       0.677700
     22 OAJ         26.3340    57.4080    45.4420 o          1 29D      -0.684100
     23 NBM         26.4380    55.6490    44.0450 ns         1 29D      -0.502900
     24 CCG         25.8070    56.3310    42.9410 c3         1 29D      -0.026300
     25 CBR         26.6170    57.5630    42.4400 c          1 29D       0.942600
     26 OAO         27.8520    57.5070    42.5720 o          1 29D      -0.854800
     27 CBC         24.3110    56.6170    43.1680 c3         1 29D      -0.056400
     28 CAY         23.6100    55.7050    44.1790 c3         1 29D      -0.164400
     29 CBU         23.9340    54.2240    44.1500 c          1 29D       0.669100
     30 OAI         24.0030    53.5700    45.1850 o          1 29D      -0.640100
     31 OAF         25.9600    58.4640    41.8830 o          1 29D      -0.854800
     32 NBL         24.0900    53.6810    42.9300 ns         1 29D      -0.534900
     33 CCF         24.5550    52.3310    42.6810 c3         1 29D      -0.041300
     34 CBQ         26.0310    52.3740    42.1930 c          1 29D       0.928600
     35 OAN         26.3230    51.7590    41.1560 o          1 29D      -0.850800
     36 CBB         23.5900    51.6130    41.7380 c3         1 29D      -0.033400
     37 CAX         23.7580    50.0970    41.6540 c3         1 29D      -0.152400
     38 CBT         23.1340    49.3310    42.8010 c          1 29D       0.660100
     39 OAH         23.0520    49.7820    43.9390 o          1 29D      -0.621100
     40 OAE         26.8270    53.0280    42.9100 o          1 29D      -0.850800
     41 NBK         22.6760    48.1110    42.4800 ns         1 29D      -0.539900
     42 CCE         22.2160    47.1620    43.4700 c3         1 29D      -0.027300
     43 CBP         23.3460    46.6940    44.4260 c          1 29D       0.935600
     44 OAM         24.4940    46.6350    43.9520 o          1 29D      -0.852300
     45 CBA         21.6100    45.9710    42.7240 c3         1 29D      -0.067400
     46 CAW         20.8880    44.9710    43.6280 c3         1 29D      -0.145400
     47 CBS         20.2090    43.9160    42.7820 c          1 29D       0.661100
     48 OAG         20.8380    42.9870    42.2860 o          1 29D      -0.671100
     49 OAD         22.9810    46.3790    45.5760 o          1 29D      -0.852300
     50 N           18.8910    44.0840    42.6040 ns         1 29D      -0.528900
     51 CA          18.1350    43.3260    41.6320 c3         1 29D      -0.037300
     52 C           18.4780    43.6960    40.1630 c          1 29D       0.933600
     53 O           18.0520    42.8880    39.3140 o          1 29D      -0.853300
     54 CB          16.6330    43.4720    41.8930 c3         1 29D      -0.042400
     55 CG          16.0720    44.8800    41.7270 c3         1 29D      -0.200400
     56 CD          14.5390    44.9900    41.8720 c          1 29D       0.923600
     57 OE2         13.8650    43.9660    41.6430 o          1 29D      -0.884300
     58 OE1         14.0970    46.1180    42.1760 o          1 29D      -0.884300
     59 OXT         19.1070    44.7490    39.9550 o          1 29D      -0.853300
     60 H4          33.4600    47.7910    45.7430 hn         1 29D       0.315500
     61 H2          35.7730    50.1990    44.7450 hn         1 29D       0.445300
     62 H3          35.3090    48.5430    44.6330 hn         1 29D       0.445300
     63 H1          31.4610    53.7220    48.4940 h4         1 29D       0.036100
     64 H5          28.6750    51.3190    49.1360 h1         1 29D       0.066200
     65 H6          29.7670    51.6830    50.4440 h1         1 29D       0.066200
     66 H7          29.4420    53.9080    50.2250 hn         1 29D       0.399800
     67 H10         28.2550    52.2800    47.1340 ha         1 29D       0.112500
     68 H8          28.6060    55.9260    49.3900 ha         1 29D       0.112500
     69 H11         27.2120    53.4800    45.3450 ha         1 29D       0.169000
     70 H9          27.5510    57.1380    47.5570 ha         1 29D       0.169000
     71 H12         26.6860    54.6790    43.8640 hn         1 29D       0.379500
     72 H13         25.8810    55.6110    42.1190 h1         1 29D       0.057700
     73 H15         24.1690    57.6420    43.5100 hc         1 29D       0.031200
     74 H16         23.8010    56.5660    42.2020 hc         1 29D       0.031200
     75 H17         23.8200    56.0430    45.1940 hc         1 29D       0.036200
     76 H18         22.5270    55.8100    44.0510 hc         1 29D       0.036200
     77 H19         24.0170    54.2870    42.1280 hn         1 29D       0.290500
     78 H20         24.5480    51.8200    43.6440 h1         1 29D       0.106700
     79 H22         23.7010    52.0260    40.7320 hc         1 29D       0.015200
     80 H23         22.5670    51.8410    42.0490 hc         1 29D       0.015200
     81 H24         23.3390    49.7390    40.7110 hc         1 29D       0.055200
     82 H25         24.8200    49.8410    41.6190 hc         1 29D       0.055200
     83 H26         22.8370    47.7760    41.5440 hn         1 29D       0.290500
     84 H27         21.4260    47.6310    44.0640 h1         1 29D       0.047700
     85 H29         20.8970    46.3530    41.9860 hc         1 29D       0.045200
     86 H30         22.3950    45.4570    42.1610 hc         1 29D       0.045200
     87 H31         20.1630    45.5010    44.2520 hc         1 29D       0.052700
     88 H32         21.5930    44.4810    44.2990 hc         1 29D       0.052700
     89 H33         18.4830    44.9350    42.9550 hn         1 29D       0.303500
     90 H34         18.3840    42.2710    41.7710 h1         1 29D       0.029700
     91 H36         16.4160    43.1090    42.9030 hc         1 29D       0.021200
     92 H37         16.1150    42.7980    41.2130 hc         1 29D       0.021200
     93 H38         16.3300    45.2670    40.7340 hc         1 29D       0.033700
     94 H39         16.5300    45.5770    42.4350 hc         1 29D       0.033700
@<TRIPOS>BOND
     1     1     2 2   
     2     2     3 1   
     3     2     4 1   
     4     3     5 ar  
     5     3     6 ar  
     6     4     7 1   
     7     4    60 1   
     8     5     8 ar  
     9     5     9 1   
    10     6    10 ar  
    11     7     9 2   
    12     7    11 1   
    13     8    12 ar  
    14    10    12 ar  
    15    10    13 1   
    16    11    61 1   
    17    11    62 1   
    18    12    63 1   
    19    13    14 1   
    20    13    64 1   
    21    13    65 1   
    22    14    15 1   
    23    14    66 1   
    24    15    16 ar  
    25    15    17 ar  
    26    16    18 ar  
    27    16    67 1   
    28    17    19 ar  
    29    17    68 1   
    30    18    20 ar  
    31    18    69 1   
    32    19    20 ar  
    33    19    70 1   
    34    20    21 1   
    35    21    22 2   
    36    21    23 1   
    37    23    24 1   
    38    23    71 1   
    39    24    25 1   
    40    24    27 1   
    41    24    72 1   
    42    25    26 1   
    43    25    31 1   
    44    27    28 1   
    45    27    73 1   
    46    27    74 1   
    47    28    29 1   
    48    28    75 1   
    49    28    76 1   
    50    29    30 2   
    51    29    32 1   
    52    32    33 1   
    53    32    77 1   
    54    33    34 1   
    55    33    36 1   
    56    33    78 1   
    57    34    35 1   
    58    34    40 1   
    59    36    37 1   
    60    36    79 1   
    61    36    80 1   
    62    37    38 1   
    63    37    81 1   
    64    37    82 1   
    65    38    39 2   
    66    38    41 1   
    67    41    42 1   
    68    41    83 1   
    69    42    43 1   
    70    42    45 1   
    71    42    84 1   
    72    43    44 1   
    73    43    49 1   
    74    45    46 1   
    75    45    85 1   
    76    45    86 1   
    77    46    47 1   
    78    46    87 1   
    79    46    88 1   
    80    47    48 2   
    81    47    50 1   
    82    50    51 1   
    83    50    89 1   
    84    51    52 1   
    85    51    54 1   
    86    51    90 1   
    87    52    53 1   
    88    52    59 1   
    89    54    55 1   
    90    54    91 1   
    91    54    92 1   
    92    55    56 1   
    93    55    93 1   
    94    55    94 1   
    95    56    57 1   
    96    56    58 1   
@<TRIPOS>SUBSTRUCTURE
     1 29D         1 TEMP              0 ****  ****    0 ROOT
