@<TRIPOS>MOLECULE
29D
   94    96     1     0     0
SMALL
No Charge or Current Charge


@<TRIPOS>ATOM
      1 O4          29.2410    48.0630    45.4870 o          1 29D      -0.474000
      2 C4          29.8610    49.0800    45.7670 c          1 29D       0.489500
      3 C4A         29.4460    50.0850    46.8070 ca         1 29D       0.169500
      4 N3          31.0240    49.3870    45.1430 ns         1 29D      -0.461400
      5 C8A         30.3150    51.2000    47.0330 ca         1 29D       0.308000
      6 N5          28.2770    49.9050    47.4930 nb         1 29D      -0.561000
      7 C2          31.7590    50.4730    45.4290 cc         1 29D       0.739800
      8 N8          29.9690    52.1140    47.9700 nb         1 29D      -0.124000
      9 N1          31.5260    51.3940    46.3230 nd         1 29D      -0.775700
     10 C6          27.9580    50.8510    48.4090 ca         1 29D       0.247300
     11 N2          32.8690    50.6170    44.7430 nv         1 29D      -1.073200
     12 C7          28.8130    51.9460    48.6440 ca         1 29D       0.095900
     13 C9          26.6150    50.7100    49.1490 c3         1 29D       0.192500
     14 N10         25.7800    51.9460    49.1220 nu         1 29D      -0.992200
     15 CBX         25.4880    52.7200    47.9990 ca         1 29D       0.281000
     16 CAQ         25.5630    52.1850    46.7040 ca         1 29D      -0.204500
     17 CAR         25.1340    54.0650    48.1690 ca         1 29D      -0.204500
     18 CAS         25.3360    53.0000    45.5850 ca         1 29D      -0.027500
     19 CAT         24.8910    54.8840    47.0500 ca         1 29D      -0.027500
     20 CBY         25.0240    54.3660    45.7450 ca         1 29D      -0.137600
     21 CBV         24.8100    55.2620    44.5520 c          1 29D       0.610700
     22 OAJ         24.0130    56.1920    44.5860 o          1 29D      -0.684100
     23 NBM         25.5430    54.9570    43.4210 ns         1 29D      -0.435900
     24 CCG         25.4430    55.6490    42.1060 c3         1 29D      -0.026300
     25 CBR         25.6470    57.2020    42.2620 c          1 29D       0.732000
     26 OAO         26.7340    57.5920    42.6690 o          1 29D      -0.749500
     27 CBC         24.1680    55.2200    41.3100 c3         1 29D      -0.056400
     28 CAY         24.3040    53.8700    40.5530 c3         1 29D      -0.164400
     29 CBU         24.7260    52.7130    41.4650 c          1 29D       0.602100
     30 OAI         23.9530    52.1600    42.2340 o          1 29D      -0.640100
     31 OAF         24.7690    57.9760    41.8990 o          1 29D      -0.749500
     32 NBL         26.0480    52.3440    41.3390 ns         1 29D      -0.467900
     33 CCF         26.7550    51.3820    42.2190 c3         1 29D      -0.041300
     34 CBQ         27.9730    52.1050    42.8830 c          1 29D       0.718000
     35 OAN         29.1120    51.7280    42.6440 o          1 29D      -0.745500
     36 CBB         27.0850    50.0720    41.4500 c3         1 29D      -0.033400
     37 CAX         27.5240    48.8800    42.3410 c3         1 29D      -0.152400
     38 CBT         26.3550    48.2760    43.1310 c          1 29D       0.593100
     39 OAH         25.8770    48.8080    44.1230 o          1 29D      -0.621100
     40 OAE         27.7300    53.1030    43.5480 o          1 29D      -0.745500
     41 NBK         25.9120    47.0580    42.6590 ns         1 29D      -0.472900
     42 CCE         24.7930    46.2680    43.2240 c3         1 29D      -0.027300
     43 CBP         24.9670    44.7560    42.8630 c          1 29D       0.725000
     44 OAM         25.1510    44.4510    41.6910 o          1 29D      -0.747000
     45 CBA         23.4220    46.8390    42.7720 c3         1 29D      -0.067400
     46 CAW         22.2020    46.0990    43.3750 c3         1 29D      -0.145400
     47 CBS         20.8760    46.7300    42.9290 c          1 29D       0.594100
     48 OAG         20.4490    46.6210    41.7870 o          1 29D      -0.671100
     49 OAD         25.0230    43.9450    43.7780 o          1 29D      -0.747000
     50 N           20.1880    47.3980    43.9190 ns         1 29D      -0.461900
     51 CA          18.8600    48.0450    43.7710 c3         1 29D      -0.037300
     52 C           18.6010    49.0770    44.9210 c          1 29D       0.723000
     53 O           17.9230    50.0640    44.6650 o          1 29D      -0.748000
     54 CB          17.7010    47.0160    43.6380 c3         1 29D      -0.042400
     55 CG          17.5580    46.0250    44.8240 c3         1 29D      -0.200400
     56 CD          16.3530    45.0960    44.5970 c          1 29D       0.713000
     57 OE2         15.2590    45.4580    45.0010 o          1 29D      -0.779000
     58 OE1         16.5310    44.0520    43.9870 o          1 29D      -0.779000
     59 OXT         19.1780    48.9300    45.9910 o          1 29D      -0.748000
     60 H4          31.3580    48.7380    44.4500 hn         1 29D       0.315500
     61 H2          33.2880    51.5270    44.8870 hn         1 29D       0.500500
     62 H3          32.8410    50.3150    43.7780 hn         1 29D       0.500500
     63 H1          28.5620    52.7100    49.3780 h4         1 29D       0.036100
     64 H5          26.0540    49.8830    48.6930 h1         1 29D       0.066200
     65 H6          26.8200    50.4170    50.1890 h1         1 29D       0.066200
     66 H7          25.6270    52.4130    50.0190 hn         1 29D       0.455000
     67 H10         25.8020    51.1370    46.5510 ha         1 29D       0.094500
     68 H8          25.0600    54.4870    49.1670 ha         1 29D       0.094500
     69 H11         25.3830    52.5590    44.5950 ha         1 29D       0.151000
     70 H9          24.6300    55.9310    47.1970 ha         1 29D       0.151000
     71 H12         26.2610    54.2380    43.5320 hn         1 29D       0.379500
     72 H13         26.3090    55.3260    41.5150 h1         1 29D       0.057700
     73 H15         23.3030    55.1860    41.9830 hc         1 29D       0.031200
     74 H16         23.9390    55.9780    40.5520 hc         1 29D       0.031200
     75 H17         23.3320    53.6330    40.1040 hc         1 29D       0.036200
     76 H18         25.0480    54.0080    39.7590 hc         1 29D       0.036200
     77 H19         26.5960    52.8620    40.6620 hn         1 29D       0.290500
     78 H20         26.0880    51.1200    43.0460 h1         1 29D       0.106700
     79 H22         27.8680    50.2780    40.7110 hc         1 29D       0.015200
     80 H23         26.2010    49.7610    40.8790 hc         1 29D       0.015200
     81 H24         27.9500    48.1150    41.6810 hc         1 29D       0.055200
     82 H25         28.2920    49.2170    43.0440 hc         1 29D       0.055200
     83 H26         26.3830    46.6890    41.8400 hn         1 29D       0.290500
     84 H27         24.8510    46.3450    44.3180 h1         1 29D       0.047700
     85 H29         23.3650    47.8970    43.0540 hc         1 29D       0.045200
     86 H30         23.3610    46.8010    41.6770 hc         1 29D       0.045200
     87 H31         22.2820    46.1270    44.4690 hc         1 29D       0.052700
     88 H32         22.2170    45.0580    43.0340 hc         1 29D       0.052700
     89 H33         20.6250    47.4370    44.8330 hn         1 29D       0.303500
     90 H34         18.8910    48.6260    42.8400 h1         1 29D       0.029700
     91 H36         17.8380    46.4420    42.7140 hc         1 29D       0.021200
     92 H37         16.7600    47.5670    43.5180 hc         1 29D       0.021200
     93 H38         17.3960    46.6380    45.7180 hc         1 29D       0.033700
     94 H39         18.4850    45.4400    44.8500 hc         1 29D       0.033700
@<TRIPOS>BOND
     1     1     2 2   
     2     2     3 1   
     3     2     4 1   
     4     3     5 ar  
     5     3     6 ar  
     6     4     7 1   
     7     4    60 1   
     8     5     8 ar  
     9     5     9 1   
    10     6    10 ar  
    11     7     9 2   
    12     7    11 1   
    13     8    12 ar  
    14    10    12 ar  
    15    10    13 1   
    16    11    61 1   
    17    11    62 1   
    18    12    63 1   
    19    13    14 1   
    20    13    64 1   
    21    13    65 1   
    22    14    15 1   
    23    14    66 1   
    24    15    16 ar  
    25    15    17 ar  
    26    16    18 ar  
    27    16    67 1   
    28    17    19 ar  
    29    17    68 1   
    30    18    20 ar  
    31    18    69 1   
    32    19    20 ar  
    33    19    70 1   
    34    20    21 1   
    35    21    22 2   
    36    21    23 1   
    37    23    24 1   
    38    23    71 1   
    39    24    25 1   
    40    24    27 1   
    41    24    72 1   
    42    25    26 1   
    43    25    31 1   
    44    27    28 1   
    45    27    73 1   
    46    27    74 1   
    47    28    29 1   
    48    28    75 1   
    49    28    76 1   
    50    29    30 2   
    51    29    32 1   
    52    32    33 1   
    53    32    77 1   
    54    33    34 1   
    55    33    36 1   
    56    33    78 1   
    57    34    35 1   
    58    34    40 1   
    59    36    37 1   
    60    36    79 1   
    61    36    80 1   
    62    37    38 1   
    63    37    81 1   
    64    37    82 1   
    65    38    39 2   
    66    38    41 1   
    67    41    42 1   
    68    41    83 1   
    69    42    43 1   
    70    42    45 1   
    71    42    84 1   
    72    43    44 1   
    73    43    49 1   
    74    45    46 1   
    75    45    85 1   
    76    45    86 1   
    77    46    47 1   
    78    46    87 1   
    79    46    88 1   
    80    47    48 2   
    81    47    50 1   
    82    50    51 1   
    83    50    89 1   
    84    51    52 1   
    85    51    54 1   
    86    51    90 1   
    87    52    53 1   
    88    52    59 1   
    89    54    55 1   
    90    54    91 1   
    91    54    92 1   
    92    55    56 1   
    93    55    93 1   
    94    55    94 1   
    95    56    57 1   
    96    56    58 1   
@<TRIPOS>SUBSTRUCTURE
     1 29D         1 TEMP              0 ****  ****    0 ROOT
