@<TRIPOS>MOLECULE
29E
   40    42     1     0     0
SMALL
No Charge or Current Charge


@<TRIPOS>ATOM
      1 C            2.7220     5.2830    -0.2680 c3         1 29E       0.143100
      2 N            2.9630     3.8850     0.1390 n7         1 29E      -0.859400
      3 C1           2.0360     2.8950    -0.4460 c3         1 29E       0.155800
      4 C2           2.4050     1.4730     0.0220 c3         1 29E      -0.074400
      5 C3           1.5180     0.3790    -0.6070 c3         1 29E       0.253600
      6 C14          1.9480    -1.0070    -0.1930 cc         1 29E      -0.263300
      7 S            1.5960    -1.6390     1.4170 ss         1 29E       0.242000
      8 C17          2.3850    -3.1640     1.0280 cc         1 29E      -0.242000
      9 C16          2.8700    -3.1540    -0.2550 cd         1 29E      -0.135000
     10 C15          2.6240    -1.9370    -0.9440 cd         1 29E      -0.118000
     11 O            0.1700     0.6030    -0.1540 os         1 29E      -0.355100
     12 C4          -0.9280    -0.0810    -0.6490 ca         1 29E       0.159100
     13 C13         -2.1790     0.0860    -0.0060 ca         1 29E      -0.057000
     14 C12         -2.3130     0.9250     1.1240 ca         1 29E      -0.074000
     15 C11         -3.5610     1.0770     1.7520 ca         1 29E      -0.126000
     16 C10         -4.6860     0.3960     1.2620 ca         1 29E      -0.097000
     17 C9          -4.5640    -0.4410     0.1400 ca         1 29E      -0.111000
     18 C8          -3.3170    -0.5980    -0.4950 ca         1 29E      -0.007000
     19 C7          -3.2070    -1.4380    -1.6160 ca         1 29E      -0.138000
     20 C6          -1.9690    -1.6010    -2.2570 ca         1 29E      -0.068000
     21 C5          -0.8350    -0.9250    -1.7790 ca         1 29E      -0.204000
     22 H1           2.8060     5.3940    -1.3570 h1         1 29E       0.029700
     23 H2           1.7180     5.6120     0.0350 h1         1 29E       0.029700
     24 H3           3.4560     5.9530     0.2000 h1         1 29E       0.029700
     25 H4           2.8840     3.8330     1.1630 hn         1 29E       0.405000
     26 H6           1.0010     3.1180    -0.1480 h1         1 29E       0.037200
     27 H7           2.0830     2.9320    -1.5430 h1         1 29E       0.037200
     28 H8           3.4490     1.2700    -0.2440 hc         1 29E       0.062700
     29 H9           2.3350     1.4150     1.1140 hc         1 29E       0.062700
     30 H10          1.5820     0.4740    -1.6990 h1         1 29E       0.056700
     31 H11          2.4280    -3.9480     1.7720 h4         1 29E       0.150000
     32 H12          3.3930    -3.9950    -0.7010 ha         1 29E       0.134000
     33 H13          2.9410    -1.7610    -1.9690 ha         1 29E       0.132000
     34 H14         -1.4550     1.4620     1.5220 ha         1 29E       0.123000
     35 H15         -3.6550     1.7250     2.6210 ha         1 29E       0.111000
     36 H16         -5.6510     0.5150     1.7500 ha         1 29E       0.112000
     37 H17         -5.4400    -0.9660    -0.2340 ha         1 29E       0.113000
     38 H18         -4.0790    -1.9660    -1.9950 ha         1 29E       0.115000
     39 H19         -1.8900    -2.2510    -3.1260 ha         1 29E       0.111000
     40 H20          0.1060    -1.0710    -2.3000 ha         1 29E       0.121000
@<TRIPOS>BOND
     1     1     2 1   
     2     1    22 1   
     3     1    23 1   
     4     1    24 1   
     5     2     3 1   
     6     2    25 1   
     7     3     4 1   
     8     3    26 1   
     9     3    27 1   
    10     4     5 1   
    11     4    28 1   
    12     4    29 1   
    13     5     6 1   
    14     5    11 1   
    15     5    30 1   
    16     6     7 1   
    17     6    10 2   
    18     7     8 1   
    19     8     9 2   
    20     8    31 1   
    21     9    10 1   
    22     9    32 1   
    23    10    33 1   
    24    11    12 1   
    25    12    13 ar  
    26    12    21 ar  
    27    13    14 ar  
    28    13    18 ar  
    29    14    15 ar  
    30    14    34 1   
    31    15    16 ar  
    32    15    35 1   
    33    16    17 ar  
    34    16    36 1   
    35    17    18 ar  
    36    17    37 1   
    37    18    19 ar  
    38    19    20 ar  
    39    19    38 1   
    40    20    21 ar  
    41    20    39 1   
    42    21    40 1   
@<TRIPOS>SUBSTRUCTURE
     1 29E         1 TEMP              0 ****  ****    0 ROOT
