@<TRIPOS>MOLECULE
29E
   40    42     1     0     0
SMALL
abcg2


@<TRIPOS>ATOM
      1 C            2.5830     5.1510    -0.2620 c3         1 29E       0.143100
      2 N            2.8810     3.7960     0.1540 n7         1 29E      -0.859400
      3 C1           1.9670     2.8270    -0.4190 c3         1 29E       0.155800
      4 C2           2.3430     1.4180     0.0190 c3         1 29E      -0.074400
      5 C3           1.4700     0.3340    -0.6000 c3         1 29E       0.253600
      6 C14          1.9310    -1.0390    -0.2210 cc         1 29E      -0.263300
      7 S            1.5450    -1.6830     1.3290 ss         1 29E       0.242000
      8 C17          2.4350    -3.1150     1.0200 cc         1 29E      -0.242000
      9 C16          3.0040    -3.0960    -0.2160 cd         1 29E      -0.135000
     10 C15          2.7110    -1.9000    -0.9300 cd         1 29E      -0.118000
     11 O            0.1490     0.5590    -0.1320 os         1 29E      -0.355100
     12 C4          -0.8940    -0.1000    -0.6720 ca         1 29E       0.159100
     13 C13         -2.1390     0.1150    -0.0090 ca         1 29E      -0.057000
     14 C12         -2.2490     0.9410     1.1340 ca         1 29E      -0.074000
     15 C11         -3.4590     1.1210     1.7490 ca         1 29E      -0.126000
     16 C10         -4.6140     0.4860     1.2530 ca         1 29E      -0.097000
     17 C9          -4.5340    -0.3190     0.1490 ca         1 29E      -0.111000
     18 C8          -3.3000    -0.5270    -0.5110 ca         1 29E      -0.007000
     19 C7          -3.2020    -1.3620    -1.6500 ca         1 29E      -0.138000
     20 C6          -1.9930    -1.5440    -2.2580 ca         1 29E      -0.068000
     21 C5          -0.8260    -0.9150    -1.7740 ca         1 29E      -0.204000
     22 H1           2.7570     5.2560    -1.3350 h1         1 29E       0.029700
     23 H2           1.5480     5.4660    -0.0670 h1         1 29E       0.029700
     24 H3           3.2470     5.8500     0.2460 h1         1 29E       0.029700
     25 H4           2.8140     3.7440     1.1640 hn         1 29E       0.405000
     26 H6           0.9180     3.0360    -0.1650 h1         1 29E       0.037200
     27 H7           2.0410     2.8940    -1.5100 h1         1 29E       0.037200
     28 H8           3.3760     1.2170    -0.2730 hc         1 29E       0.062700
     29 H9           2.3020     1.3350     1.1100 hc         1 29E       0.062700
     30 H10          1.5150     0.4310    -1.6920 h1         1 29E       0.056700
     31 H11          2.4790    -3.8990     1.7610 h4         1 29E       0.150000
     32 H12          3.6020    -3.9040    -0.6120 ha         1 29E       0.134000
     33 H13          3.0630    -1.6890    -1.9310 ha         1 29E       0.132000
     34 H14         -1.3720     1.4360     1.5280 ha         1 29E       0.123000
     35 H15         -3.5300     1.7550     2.6240 ha         1 29E       0.111000
     36 H16         -5.5650     0.6350     1.7480 ha         1 29E       0.112000
     37 H17         -5.4190    -0.8120    -0.2340 ha         1 29E       0.113000
     38 H18         -4.0900    -1.8530    -2.0270 ha         1 29E       0.115000
     39 H19         -1.9130    -2.1830    -3.1270 ha         1 29E       0.111000
     40 H20          0.1080    -1.1010    -2.2850 ha         1 29E       0.121000
@<TRIPOS>BOND
     1     1     2 1   
     2     1    22 1   
     3     1    23 1   
     4     1    24 1   
     5     2     3 1   
     6     2    25 1   
     7     3     4 1   
     8     3    26 1   
     9     3    27 1   
    10     4     5 1   
    11     4    28 1   
    12     4    29 1   
    13     5     6 1   
    14     5    11 1   
    15     5    30 1   
    16     6     7 1   
    17     6    10 2   
    18     7     8 1   
    19     8     9 2   
    20     8    31 1   
    21     9    10 1   
    22     9    32 1   
    23    10    33 1   
    24    11    12 1   
    25    12    13 ar  
    26    12    21 ar  
    27    13    14 ar  
    28    13    18 ar  
    29    14    15 ar  
    30    14    34 1   
    31    15    16 ar  
    32    15    35 1   
    33    16    17 ar  
    34    16    36 1   
    35    17    18 ar  
    36    17    37 1   
    37    18    19 ar  
    38    19    20 ar  
    39    19    38 1   
    40    20    21 ar  
    41    20    39 1   
    42    21    40 1   
@<TRIPOS>SUBSTRUCTURE
     1 29E         1 TEMP              0 ****  ****    0 ROOT
