@<TRIPOS>MOLECULE
29F
   39    41     1     0     0
SMALL
No Charge or Current Charge


@<TRIPOS>ATOM
      1 C            5.5350     0.7120     1.3460 c3         1 29F      -0.083767
      2 N           -1.4400    -1.3120     0.4430 ns         1 29F      -0.428400
      3 O           -3.2260    -2.6250     0.8110 o          1 29F      -0.539000
      4 C1           5.0310     0.1880    -0.0260 c3         1 29F      -0.004700
      5 N1          -1.5340     0.9940    -0.2000 nc         1 29F      -0.639100
      6 C2           5.4470     1.1850    -1.1420 c3         1 29F      -0.083767
      7 C3           5.7380    -1.1670    -0.3080 c3         1 29F      -0.083767
      8 C4           3.4830     0.0730     0.0070 ca         1 29F      -0.037300
      9 C5           2.7020     1.2220     0.2580 ca         1 29F      -0.118000
     10 C6           1.2990     1.1610     0.2960 ca         1 29F      -0.071000
     11 C7           0.6200    -0.0620     0.0990 ca         1 29F      -0.157900
     12 C8           1.3950    -1.2110    -0.1780 ca         1 29F      -0.071000
     13 C9           2.7990    -1.1460    -0.2170 ca         1 29F      -0.118000
     14 C10         -0.8620    -0.1220     0.1040 cd         1 29F       0.568500
     15 C11         -2.7690    -1.5370     0.5010 c          1 29F       0.579600
     16 C12         -3.5910    -0.3530     0.1620 ca         1 29F      -0.206600
     17 C13         -5.0010    -0.4210     0.1710 ca         1 29F      -0.039000
     18 C14         -5.7610     0.7150    -0.1490 ca         1 29F      -0.136000
     19 C15         -5.1150     1.9160    -0.4770 ca         1 29F      -0.074000
     20 C16         -3.7110     1.9750    -0.4840 ca         1 29F      -0.107000
     21 C17         -2.9300     0.8470    -0.1670 ca         1 29F       0.194400
     22 H            5.1470     1.7130     1.5660 hc         1 29F       0.037367
     23 HA           5.2190     0.0430     2.1550 hc         1 29F       0.037367
     24 HB           6.6300     0.7720     1.3650 hc         1 29F       0.037367
     25 HN          -0.8550    -2.0940     0.6920 hn         1 29F       0.330500
     26 H2           6.5390     1.2630    -1.2110 hc         1 29F       0.037367
     27 H2A          5.0690     0.8530    -2.1170 hc         1 29F       0.037367
     28 H2B          5.0560     2.1910    -0.9530 hc         1 29F       0.037367
     29 H3           5.4970    -1.9080     0.4640 hc         1 29F       0.037367
     30 H3A          5.4450    -1.5720    -1.2850 hc         1 29F       0.037367
     31 H3B          6.8290    -1.0460    -0.3170 hc         1 29F       0.037367
     32 H5           3.1790     2.1840     0.4260 ha         1 29F       0.118500
     33 H6           0.7430     2.0750     0.4930 ha         1 29F       0.125000
     34 H8           0.9190    -2.1680    -0.3800 ha         1 29F       0.125000
     35 H9           3.3360    -2.0650    -0.4300 ha         1 29F       0.118500
     36 H13         -5.5080    -1.3500     0.4260 ha         1 29F       0.135000
     37 H14         -6.8470     0.6640    -0.1420 ha         1 29F       0.119000
     38 H15         -5.6990     2.7990    -0.7260 ha         1 29F       0.116000
     39 H16         -3.2190     2.9100    -0.7400 ha         1 29F       0.131000
@<TRIPOS>BOND
     1     1     4 1   
     2     1    22 1   
     3     1    23 1   
     4     1    24 1   
     5     2    14 1   
     6     2    15 1   
     7     2    25 1   
     8     3    15 2   
     9     4     6 1   
    10     4     7 1   
    11     4     8 1   
    12     5    14 2   
    13     5    21 1   
    14     6    26 1   
    15     6    27 1   
    16     6    28 1   
    17     7    29 1   
    18     7    30 1   
    19     7    31 1   
    20     8     9 ar  
    21     8    13 ar  
    22     9    10 ar  
    23     9    32 1   
    24    10    11 ar  
    25    10    33 1   
    26    11    12 ar  
    27    11    14 1   
    28    12    13 ar  
    29    12    34 1   
    30    13    35 1   
    31    15    16 1   
    32    16    17 ar  
    33    16    21 ar  
    34    17    18 ar  
    35    17    36 1   
    36    18    19 ar  
    37    18    37 1   
    38    19    20 ar  
    39    19    38 1   
    40    20    21 ar  
    41    20    39 1   
@<TRIPOS>SUBSTRUCTURE
     1 29F         1 TEMP              0 ****  ****    0 ROOT
