@<TRIPOS>MOLECULE
29F
   39    41     1     0     0
SMALL
bcc


@<TRIPOS>ATOM
      1 C            5.4250     0.8840     1.2990 c3         1 29F      -0.083767
      2 N           -1.4330    -1.3930     0.1960 ns         1 29F      -0.495400
      3 O           -3.2590    -2.7100     0.3960 o          1 29F      -0.614500
      4 C1           4.9790     0.2080    -0.0060 c3         1 29F      -0.004700
      5 N1          -1.5040     0.9120    -0.0980 nc         1 29F      -0.639100
      6 C2           5.3880     1.0780    -1.2030 c3         1 29F      -0.083767
      7 C3           5.6940    -1.1370    -0.1190 c3         1 29F      -0.083767
      8 C4           3.4640     0.0610     0.0020 ca         1 29F      -0.037300
      9 C5           2.6560     1.1980     0.1080 ca         1 29F      -0.136000
     10 C6           1.2790     1.1110     0.1160 ca         1 29F      -0.089000
     11 C7           0.6420    -0.1290     0.0220 ca         1 29F      -0.157900
     12 C8           1.4360    -1.2660    -0.0910 ca         1 29F      -0.089000
     13 C9           2.8210    -1.1680    -0.0990 ca         1 29F      -0.136000
     14 C10         -0.8310    -0.1770     0.0380 cd         1 29F       0.568500
     15 C11         -2.7950    -1.5960     0.2370 c          1 29F       0.722100
     16 C12         -3.5640    -0.3710     0.0770 ca         1 29F      -0.206600
     17 C13         -4.9610    -0.3950     0.0860 ca         1 29F      -0.057000
     18 C14         -5.6700     0.7770    -0.0580 ca         1 29F      -0.154000
     19 C15         -4.9870     1.9890    -0.2140 ca         1 29F      -0.092000
     20 C16         -3.6100     2.0260    -0.2260 ca         1 29F      -0.125000
     21 C17         -2.8730     0.8420    -0.0780 ca         1 29F       0.194400
     22 H            5.0280     1.8960     1.3970 hc         1 29F       0.037367
     23 HA           5.0990     0.3130     2.1700 hc         1 29F       0.037367
     24 HB           6.5130     0.9550     1.3330 hc         1 29F       0.037367
     25 HN          -0.8630    -2.2150     0.3430 hn         1 29F       0.330500
     26 H2           6.4750     1.1770    -1.2440 hc         1 29F       0.037367
     27 H2A          5.0570     0.6350    -2.1430 hc         1 29F       0.037367
     28 H2B          4.9690     2.0830    -1.1410 hc         1 29F       0.037367
     29 H3           5.4720    -1.7950     0.7230 hc         1 29F       0.037367
     30 H3A          5.4350    -1.6650    -1.0380 hc         1 29F       0.037367
     31 H3B          6.7730    -0.9740    -0.1290 hc         1 29F       0.037367
     32 H5           3.1080     2.1790     0.1880 ha         1 29F       0.136500
     33 H6           0.6830     2.0090     0.2020 ha         1 29F       0.143000
     34 H8           1.0090    -2.2550    -0.1990 ha         1 29F       0.143000
     35 H9           3.3930    -2.0810    -0.1880 ha         1 29F       0.136500
     36 H13         -5.4800    -1.3370     0.2090 ha         1 29F       0.153000
     37 H14         -6.7510     0.7620    -0.0530 ha         1 29F       0.137000
     38 H15         -5.5480     2.9080    -0.3290 ha         1 29F       0.134000
     39 H16         -3.0780     2.9600    -0.3510 ha         1 29F       0.149000
@<TRIPOS>BOND
     1     1     4 1   
     2     1    22 1   
     3     1    23 1   
     4     1    24 1   
     5     2    14 1   
     6     2    15 1   
     7     2    25 1   
     8     3    15 2   
     9     4     6 1   
    10     4     7 1   
    11     4     8 1   
    12     5    14 2   
    13     5    21 1   
    14     6    26 1   
    15     6    27 1   
    16     6    28 1   
    17     7    29 1   
    18     7    30 1   
    19     7    31 1   
    20     8     9 ar  
    21     8    13 ar  
    22     9    10 ar  
    23     9    32 1   
    24    10    11 ar  
    25    10    33 1   
    26    11    12 ar  
    27    11    14 1   
    28    12    13 ar  
    29    12    34 1   
    30    13    35 1   
    31    15    16 1   
    32    16    17 ar  
    33    16    21 ar  
    34    17    18 ar  
    35    17    36 1   
    36    18    19 ar  
    37    18    37 1   
    38    19    20 ar  
    39    19    38 1   
    40    20    21 ar  
    41    20    39 1   
@<TRIPOS>SUBSTRUCTURE
     1 29F         1 TEMP              0 ****  ****    0 ROOT
