@<TRIPOS>MOLECULE
29G
   18    19     1     0     0
SMALL
bcc


@<TRIPOS>ATOM
      1 NAB          0.6490     2.6760     0.0310 nv         1 29G      -0.961500
      2 CAJ          0.6880     1.3480     0.0160 ca         1 29G       0.801200
      3 NAG          1.8630     0.7580    -0.0010 nb         1 29G      -0.885000
      4 C5          -0.5200     0.5610     0.0210 ca         1 29G      -0.547900
      5 C6          -1.8230     1.0430     0.0380 ca         1 29G       0.503200
      6 N1          -2.8750     0.2460     0.0430 nb         1 29G      -0.741000
      7 C2          -2.6060    -1.0660     0.0300 ca         1 29G       0.683900
      8 N3          -1.4330    -1.6450     0.0130 nb         1 29G      -0.704000
      9 C4          -0.3470    -0.8430     0.0090 ca         1 29G       0.764300
     10 NAH          0.8530    -1.4200    -0.0070 nb         1 29G      -0.807000
     11 CAI          1.8930    -0.5900    -0.0110 ca         1 29G       0.985900
     12 NAA          3.1100    -1.1370    -0.0280 nv         1 29G      -0.954500
     13 H1          -0.2080     3.2000     0.0310 hn         1 29G       0.448800
     14 H2           1.5090     3.1980     0.0190 hn         1 29G       0.448800
     15 H3          -2.0310     2.1080     0.0500 h4         1 29G       0.006100
     16 H4          -3.4700    -1.7230     0.0330 h5         1 29G       0.049100
     17 H5           3.9320    -0.5580    -0.0330 hn         1 29G       0.454300
     18 H6           3.2190    -2.1360    -0.0360 hn         1 29G       0.454300
@<TRIPOS>BOND
     1     1     2 1   
     2     1    13 1   
     3     1    14 1   
     4     2     3 ar  
     5     2     4 ar  
     6     3    11 ar  
     7     4     5 ar  
     8     4     9 ar  
     9     5     6 ar  
    10     5    15 1   
    11     6     7 ar  
    12     7     8 ar  
    13     7    16 1   
    14     8     9 ar  
    15     9    10 ar  
    16    10    11 ar  
    17    11    12 1   
    18    12    17 1   
    19    12    18 1   
@<TRIPOS>SUBSTRUCTURE
     1 29G         1 TEMP              0 ****  ****    0 ROOT
