@<TRIPOS>MOLECULE
29G
   18    19     1     0     0
SMALL
No Charge or Current Charge


@<TRIPOS>ATOM
      1 NAB          0.6430     2.6530     0.1210 nv         1 29G      -1.071900
      2 CAJ          0.6620     1.3030     0.0530 ca         1 29G       0.472900
      3 NAG          1.8810     0.7730    -0.0100 nb         1 29G      -0.359000
      4 C5          -0.5000     0.5210     0.0440 ca         1 29G      -0.352000
      5 C6          -1.7990     1.0630     0.1140 ca         1 29G       0.174900
      6 N1          -2.8890     0.2750     0.1040 nb         1 29G      -0.215000
      7 C2          -2.6630    -1.0510     0.0250 ca         1 29G       0.157900
      8 N3          -1.4630    -1.6620    -0.0430 nb         1 29G      -0.178000
      9 C4          -0.3560    -0.8880    -0.0350 ca         1 29G       0.173000
     10 NAH          0.8850    -1.4110    -0.0980 nb         1 29G      -0.281000
     11 CAI          1.9160    -0.5570    -0.0830 ca         1 29G       0.459900
     12 NAA          3.1480    -1.1050    -0.1440 nv         1 29G      -1.064900
     13 H1          -0.2210     3.1350    -0.1080 hn         1 29G       0.504000
     14 H2           1.5050     3.1480    -0.0930 hn         1 29G       0.504000
     15 H3          -1.9810     2.1340     0.1790 h4         1 29G       0.006100
     16 H4          -3.5400    -1.6950     0.0170 h5         1 29G       0.049100
     17 H5           3.9360    -0.5180     0.1170 hn         1 29G       0.509500
     18 H6           3.2390    -2.0980     0.0560 hn         1 29G       0.509500
@<TRIPOS>BOND
     1     1     2 1   
     2     1    13 1   
     3     1    14 1   
     4     2     3 ar  
     5     2     4 ar  
     6     3    11 ar  
     7     4     5 ar  
     8     4     9 ar  
     9     5     6 ar  
    10     5    15 1   
    11     6     7 ar  
    12     7     8 ar  
    13     7    16 1   
    14     8     9 ar  
    15     9    10 ar  
    16    10    11 ar  
    17    11    12 1   
    18    12    17 1   
    19    12    18 1   
@<TRIPOS>SUBSTRUCTURE
     1 29G         1 TEMP              0 ****  ****    0 ROOT
