@<TRIPOS>MOLECULE
29H
   17    18     1     0     0
SMALL
No Charge or Current Charge


@<TRIPOS>ATOM
      1 NAH          1.8340     0.7470     0.0890 ns         1 29H      -0.456400
      2 CAJ          0.6760     1.4220     0.0560 c          1 29H       0.609600
      3 OAB          0.6270     2.6410     0.0460 o          1 29H      -0.524000
      4 C5          -0.5050     0.5480     0.0360 ca         1 29H      -0.363600
      5 C6          -1.8030     1.0870    -0.0030 ca         1 29H       0.190900
      6 N1          -2.8890     0.2970    -0.0190 nb         1 29H      -0.209000
      7 C2          -2.6520    -1.0270     0.0050 ca         1 29H       0.162900
      8 N3          -1.4460    -1.6280     0.0420 nb         1 29H      -0.184000
      9 C4          -0.3410    -0.8520     0.0590 ca         1 29H       0.400000
     10 NAG          0.9250    -1.4590     0.0970 nc         1 29H      -0.784700
     11 CAI          1.8920    -0.5850     0.1080 cd         1 29H       0.761800
     12 NAA          3.0880    -1.1290     0.1360 nv         1 29H      -1.052200
     13 H1           2.6760     1.2950     0.1280 hn         1 29H       0.326500
     14 H2          -1.9820     2.1620    -0.0210 h4         1 29H       0.039100
     15 H3          -3.5230    -1.6800    -0.0080 h5         1 29H       0.051100
     16 H4           3.8150    -0.6380    -0.3670 hn         1 29H       0.516000
     17 H5           3.0630    -2.1280    -0.0270 hn         1 29H       0.516000
@<TRIPOS>BOND
     1     1     2 1   
     2     1    11 1   
     3     1    13 1   
     4     2     3 2   
     5     2     4 1   
     6     4     5 ar  
     7     4     9 ar  
     8     5     6 ar  
     9     5    14 1   
    10     6     7 ar  
    11     7     8 ar  
    12     7    15 1   
    13     8     9 ar  
    14     9    10 1   
    15    10    11 2   
    16    11    12 1   
    17    12    16 1   
    18    12    17 1   
@<TRIPOS>SUBSTRUCTURE
     1 29H         1 TEMP              0 ****  ****    0 ROOT
