@<TRIPOS>MOLECULE
29H
   17    18     1     0     0
SMALL
abcg2


@<TRIPOS>ATOM
      1 NAH          1.8140     0.7290     0.0180 ns         1 29H      -0.456400
      2 CAJ          0.6330     1.4420     0.0260 c          1 29H       0.609600
      3 OAB          0.6270     2.6560     0.0310 o          1 29H      -0.524000
      4 C5          -0.5390     0.5840     0.0270 ca         1 29H      -0.363600
      5 C6          -1.8330     1.0820     0.0370 ca         1 29H       0.190900
      6 N1          -2.8910     0.2920     0.0370 nb         1 29H      -0.209000
      7 C2          -2.6310    -1.0190     0.0280 ca         1 29H       0.162900
      8 N3          -1.4580    -1.6080     0.0180 nb         1 29H      -0.184000
      9 C4          -0.3740    -0.8150     0.0180 ca         1 29H       0.400000
     10 NAG          0.8290    -1.4140     0.0100 nc         1 29H      -0.784700
     11 CAI          1.8850    -0.6360     0.0110 cd         1 29H       0.761800
     12 NAA          3.0980    -1.1720     0.0080 nv         1 29H      -1.052200
     13 H1           2.6710     1.2680     0.0150 hn         1 29H       0.326500
     14 H2          -2.0070     2.1520     0.0450 h4         1 29H       0.039100
     15 H3          -3.4970    -1.6730     0.0280 h5         1 29H       0.051100
     16 H4           3.9390    -0.6210     0.0050 hn         1 29H       0.516000
     17 H5           3.1890    -2.1740    -0.0040 hn         1 29H       0.516000
@<TRIPOS>BOND
     1     1     2 1   
     2     1    11 1   
     3     1    13 1   
     4     2     3 2   
     5     2     4 1   
     6     4     5 ar  
     7     4     9 ar  
     8     5     6 ar  
     9     5    14 1   
    10     6     7 ar  
    11     7     8 ar  
    12     7    15 1   
    13     8     9 ar  
    14     9    10 1   
    15    10    11 2   
    16    11    12 1   
    17    12    16 1   
    18    12    17 1   
@<TRIPOS>SUBSTRUCTURE
     1 29H         1 TEMP              0 ****  ****    0 ROOT
