@<TRIPOS>MOLECULE
29I
   75    79     1     0     0
SMALL
abcg2


@<TRIPOS>ATOM
      1 C11         34.0400     7.4090   -14.6630 ca         1 29I      -0.046000
      2 C14         32.0380     7.4370   -16.5740 ca         1 29I      -0.144000
      3 C9          33.0730     6.5180   -16.6700 ca         1 29I      -0.059900
      4 C13         31.9830     8.3550   -15.5260 ca         1 29I       0.172100
      5 C8          33.1580     5.5800   -17.7970 cc         1 29I       0.454400
      6 C5          32.6090     4.0380   -19.2610 ca         1 29I      -0.050200
      7 N2          32.1350     4.7510   -18.1860 na         1 29I      -0.175600
      8 C12         33.0000     8.3220   -14.5680 ca         1 29I      -0.109900
      9 C19         24.3530     4.2180   -15.8200 ca         1 29I      -0.105300
     10 C3          32.8540     2.5370   -21.0730 ca         1 29I      -0.074000
     11 C6          33.9220     4.4940   -19.4560 ca         1 29I       0.050400
     12 C18         25.1700     3.9750   -17.0510 c3         1 29I       0.232900
     13 C21         23.8470     3.7060   -13.5160 ca         1 29I      -0.115000
     14 C20         24.5870     3.4740   -14.6660 ca         1 29I      -0.084000
     15 C10         34.0840     6.5100   -15.7120 ca         1 29I      -0.110000
     16 C16         29.6990     5.0310   -18.2660 c3         1 29I       0.108000
     17 C17         27.3540     4.4550   -17.8030 c          1 29I       0.646100
     18 C24         23.3680     5.1990   -15.8040 ca         1 29I      -0.084000
     19 C28         30.8160     0.3790   -16.1660 ca         1 29I       0.126100
     20 C29         31.6710    -1.4230   -14.8950 c3         1 29I       0.143900
     21 C27         31.7260     1.2860   -15.6470 ca         1 29I      -0.173000
     22 C25         30.8180     3.0530   -17.0190 ca         1 29I      -0.113300
     23 C23         22.6220     5.4320   -14.6550 ca         1 29I      -0.115000
     24 C26         31.7200     2.6130   -16.0670 ca         1 29I      -0.086000
     25 O2          27.1610     3.8370   -18.8310 o          1 29I      -0.556000
     26 O3          26.4310     4.6250   -16.8510 os         1 29I      -0.454100
     27 C22         22.8620     4.6870   -13.5090 ca         1 29I      -0.096000
     28 N3          28.5100     5.0530   -17.4570 ns         1 29I      -0.501900
     29 C15         30.8910     4.5000   -17.4620 c3         1 29I       0.124600
     30 C32         29.8990     2.1420   -17.5440 ca         1 29I      -0.156000
     31 C30         29.8840     0.8210   -17.1260 ca         1 29I       0.110100
     32 O5          29.0260    -0.1130   -17.5760 os         1 29I      -0.324100
     33 C31         28.0580     0.2700   -18.5310 c3         1 29I       0.142900
     34 C4          32.0570     3.0460   -20.0660 ca         1 29I      -0.113000
     35 O1          30.9550     9.2110   -15.5290 oh         1 29I      -0.528100
     36 BR          32.9800     9.5400   -13.1270 br         1 29I      -0.092100
     37 N1          34.2290     5.4540   -18.5260 nd         1 29I      -0.546100
     38 C7          34.7120     3.9670   -20.4700 ca         1 29I       0.013000
     39 C2          34.1700     2.9880   -21.2890 ca         1 29I      -0.177600
     40 O           36.2700     2.4910   -22.2770 o          1 29I      -0.604100
     41 N           34.4370     1.8330   -23.3970 ns         1 29I      -0.505900
     42 C           35.1780     1.2390   -24.4850 c3         1 29I       0.095300
     43 H1          34.8210     7.3960   -13.9150 ha         1 29I       0.135000
     44 H2          31.2620     7.4860   -17.3280 ha         1 29I       0.134000
     45 H3          32.4410     1.7460   -21.6850 ha         1 29I       0.111000
     46 H4          24.6720     4.3800   -17.9340 h1         1 29I       0.056200
     47 H5          25.3230     2.9050   -17.2080 h1         1 29I       0.056200
     48 H6          24.0350     3.1190   -12.6270 ha         1 29I       0.116000
     49 H7          25.3480     2.7020   -14.6690 ha         1 29I       0.115500
     50 H8          34.8980     5.8010   -15.7800 ha         1 29I       0.140000
     51 H9          29.5140     4.4380   -19.1600 h1         1 29I       0.070200
     52 H10         29.9430     6.0390   -18.6090 h1         1 29I       0.070200
     53 H11         23.1770     5.7820   -16.6970 ha         1 29I       0.115500
     54 H12         31.4430    -2.4780   -14.7680 h1         1 29I       0.041700
     55 H13         32.6990    -1.3260   -15.2550 h1         1 29I       0.041700
     56 H14         31.5900    -0.9260   -13.9250 h1         1 29I       0.041700
     57 H15         32.4520     0.9790   -14.9060 ha         1 29I       0.123000
     58 H16         21.8540     6.1940   -14.6570 ha         1 29I       0.116000
     59 H17         32.4400     3.3000   -15.6370 ha         1 29I       0.116000
     60 H18         22.2810     4.8660   -12.6140 ha         1 29I       0.114000
     61 H19         28.5370     5.5780   -16.5950 hn         1 29I       0.332500
     62 H20         30.9530     5.1080   -16.5570 h1         1 29I       0.074700
     63 H21         29.1890     2.4600   -18.2940 ha         1 29I       0.135000
     64 H22         27.4680    -0.6190   -18.7430 h1         1 29I       0.043700
     65 H23         27.3950     1.0520   -18.1520 h1         1 29I       0.043700
     66 H24         28.5150     0.6180   -19.4610 h1         1 29I       0.043700
     67 H25         31.0560     2.6660   -19.9230 ha         1 29I       0.127000
     68 H26         30.9700     9.8120   -14.7740 ho         1 29I       0.485000
     69 H27         35.7260     4.3160   -20.6130 ha         1 29I       0.152000
     70 H28         33.4400     1.9130   -23.5020 hn         1 29I       0.315500
     71 H29         34.4720     0.7710   -25.1650 h1         1 29I       0.039700
     72 H30         35.7560     1.9780   -25.0410 h1         1 29I       0.039700
     73 H31         35.8630     0.4720   -24.1240 h1         1 29I       0.039700
     74 C1          35.0490     2.4200   -22.3570 c          1 29I       0.613700
     75 O4          30.7360    -0.9190   -15.8280 os         1 29I      -0.318100
@<TRIPOS>BOND
     1     1     8 ar  
     2     1    15 ar  
     3     1    43 1   
     4     2     3 ar  
     5     2     4 ar  
     6     2    44 1   
     7     3     5 1   
     8     3    15 ar  
     9     4     8 ar  
    10     4    35 1   
    11     5     7 1   
    12     5    37 2   
    13     6     7 1   
    14     6    11 ar  
    15     6    34 ar  
    16     7    29 1   
    17     8    36 1   
    18     9    12 1   
    19     9    14 ar  
    20     9    18 ar  
    21    10    34 ar  
    22    10    39 ar  
    23    10    45 1   
    24    11    37 1   
    25    11    38 ar  
    26    12    26 1   
    27    12    46 1   
    28    12    47 1   
    29    13    14 ar  
    30    13    27 ar  
    31    13    48 1   
    32    14    49 1   
    33    15    50 1   
    34    16    28 1   
    35    16    29 1   
    36    16    51 1   
    37    16    52 1   
    38    17    25 2   
    39    17    26 1   
    40    17    28 1   
    41    18    23 ar  
    42    18    53 1   
    43    19    21 ar  
    44    19    31 ar  
    45    19    75 1   
    46    20    54 1   
    47    20    55 1   
    48    20    56 1   
    49    20    75 1   
    50    21    24 ar  
    51    21    57 1   
    52    22    24 ar  
    53    22    29 1   
    54    22    30 ar  
    55    23    27 ar  
    56    23    58 1   
    57    24    59 1   
    58    27    60 1   
    59    28    61 1   
    60    29    62 1   
    61    30    31 ar  
    62    30    63 1   
    63    31    32 1   
    64    32    33 1   
    65    33    64 1   
    66    33    65 1   
    67    33    66 1   
    68    34    67 1   
    69    35    68 1   
    70    38    39 ar  
    71    38    69 1   
    72    39    74 1   
    73    40    74 2   
    74    41    42 1   
    75    41    70 1   
    76    41    74 1   
    77    42    71 1   
    78    42    72 1   
    79    42    73 1   
@<TRIPOS>SUBSTRUCTURE
     1 29I         1 TEMP              0 ****  ****    0 ROOT
