@<TRIPOS>MOLECULE
29I
   75    79     1     0     0
SMALL
No Charge or Current Charge


@<TRIPOS>ATOM
      1 C11         34.4270     7.6250   -14.7030 ca         1 29I      -0.046000
      2 C14         32.1680     7.4510   -16.3600 ca         1 29I      -0.144000
      3 C9          33.2700     6.5990   -16.6050 ca         1 29I      -0.059900
      4 C13         32.1810     8.3520   -15.2850 ca         1 29I       0.172100
      5 C8          33.2930     5.6840   -17.7570 cc         1 29I       0.454400
      6 C5          32.6530     4.2140   -19.3000 ca         1 29I      -0.050200
      7 N2          32.2020     4.9270   -18.2200 na         1 29I      -0.175600
      8 C12         33.3090     8.4350   -14.4480 ca         1 29I      -0.109900
      9 C19         24.2550     4.0840   -15.9200 ca         1 29I      -0.105300
     10 C3          32.7510     2.7250   -21.1970 ca         1 29I      -0.074000
     11 C6          33.9750     4.5240   -19.4470 ca         1 29I       0.050400
     12 C18         25.0980     3.9510   -17.1810 c3         1 29I       0.232900
     13 C21         23.5620     3.2320   -13.7390 ca         1 29I      -0.115000
     14 C20         24.3400     3.1110   -14.9040 ca         1 29I      -0.084000
     15 C10         34.4120     6.7230   -15.7820 ca         1 29I      -0.110000
     16 C16         29.6930     5.1840   -18.2840 c3         1 29I       0.108000
     17 C17         27.2930     4.5110   -17.9390 c          1 29I       0.646100
     18 C24         23.3860     5.1810   -15.7570 ca         1 29I      -0.084000
     19 C28         30.8060     0.4770   -16.1290 ca         1 29I       0.126100
     20 C29         31.6310    -1.3440   -14.6700 c3         1 29I       0.143900
     21 C27         31.7210     1.4070   -15.5900 ca         1 29I      -0.173000
     22 C25         30.8520     3.1600   -17.0600 ca         1 29I      -0.113300
     23 C23         22.6080     5.3010   -14.5920 ca         1 29I      -0.115000
     24 C26         31.7390     2.7330   -16.0530 ca         1 29I      -0.086000
     25 O2          27.1230     4.0160   -19.0410 o          1 29I      -0.556000
     26 O3          26.3800     4.5490   -16.9340 os         1 29I      -0.454100
     27 C22         22.6950     4.3270   -13.5830 ca         1 29I      -0.096000
     28 N3          28.4480     5.0950   -17.5060 ns         1 29I      -0.501900
     29 C15         30.9280     4.6270   -17.5210 c3         1 29I       0.124600
     30 C32         29.9430     2.2260   -17.6050 ca         1 29I      -0.156000
     31 C30         29.9100     0.8910   -17.1430 ca         1 29I       0.110100
     32 O5          29.0180    -0.0370   -17.6580 os         1 29I      -0.324100
     33 C31         28.0360     0.3020   -18.6540 c3         1 29I       0.142900
     34 C4          32.0010     3.3180   -20.1600 ca         1 29I      -0.113000
     35 O1          31.0980     9.1500   -15.0670 oh         1 29I      -0.528100
     36 Br          33.3550     9.6590   -12.9710 br         1 29I      -0.092100
     37 N1          34.3990     5.4370   -18.4890 nd         1 29I      -0.546100
     38 C7          34.7430     3.9480   -20.4690 ca         1 29I       0.013000
     39 C2          34.1330     3.0320   -21.3640 ca         1 29I      -0.177600
     40 O           36.1560     2.6830   -22.6040 o          1 29I      -0.604100
     41 N           34.3360     1.5310   -23.3050 ns         1 29I      -0.505900
     42 C           34.9860     0.8410   -24.4210 c3         1 29I       0.095300
     43 H1          35.3090     7.6960   -14.0690 ha         1 29I       0.135000
     44 H2          31.3020     7.4320   -17.0140 ha         1 29I       0.134000
     45 H3          32.2430     2.0300   -21.8600 ha         1 29I       0.111000
     46 H4          24.5910     4.4480   -18.0190 h1         1 29I       0.056200
     47 H5          25.2070     2.8880   -17.4370 h1         1 29I       0.056200
     48 H6          23.6320     2.4780   -12.9580 ha         1 29I       0.116000
     49 H7          25.0110     2.2620   -15.0160 ha         1 29I       0.115500
     50 H8          35.2890     6.1070   -15.9700 ha         1 29I       0.140000
     51 H9          29.5750     4.6570   -19.2390 h1         1 29I       0.070200
     52 H10         29.8680     6.2410   -18.5220 h1         1 29I       0.070200
     53 H11         23.3140     5.9410   -16.5320 ha         1 29I       0.115500
     54 H12         31.4210    -2.4050   -14.4830 h1         1 29I       0.041700
     55 H13         32.6820    -1.2540   -14.9730 h1         1 29I       0.041700
     56 H14         31.4870    -0.7990   -13.7290 h1         1 29I       0.041700
     57 H15         32.4230     1.1230   -14.8110 ha         1 29I       0.123000
     58 H16         21.9380     6.1500   -14.4710 ha         1 29I       0.116000
     59 H17         32.4510     3.4350   -15.6230 ha         1 29I       0.116000
     60 H18         22.0930     4.4210   -12.6810 ha         1 29I       0.114000
     61 H19         28.4280     5.4540   -16.5600 hn         1 29I       0.332500
     62 H20         30.9520     5.1950   -16.5850 h1         1 29I       0.074700
     63 H21         29.2690     2.5380   -18.3930 ha         1 29I       0.135000
     64 H22         27.4300    -0.5770   -18.9040 h1         1 29I       0.043700
     65 H23         27.3620     1.0860   -18.2870 h1         1 29I       0.043700
     66 H24         28.5190     0.6540   -19.5750 h1         1 29I       0.043700
     67 H25         30.9500     3.0760   -20.0450 ha         1 29I       0.127000
     68 H26         31.2940     9.7110   -14.2850 ho         1 29I       0.485000
     69 H27         35.7940     4.2110   -20.5630 ha         1 29I       0.152000
     70 H28         33.3550     1.3550   -23.1320 hn         1 29I       0.315500
     71 H29         34.2570     0.1970   -24.9290 h1         1 29I       0.039700
     72 H30         35.3760     1.5780   -25.1350 h1         1 29I       0.039700
     73 H31         35.8120     0.2240   -24.0430 h1         1 29I       0.039700
     74 C1          34.9710     2.4160   -22.4620 c          1 29I       0.613700
     75 O4          30.7580    -0.8370   -15.6940 os         1 29I      -0.318100
@<TRIPOS>BOND
     1     1     8 ar  
     2     1    15 ar  
     3     1    43 1   
     4     2     3 ar  
     5     2     4 ar  
     6     2    44 1   
     7     3     5 1   
     8     3    15 ar  
     9     4     8 ar  
    10     4    35 1   
    11     5     7 1   
    12     5    37 2   
    13     6     7 1   
    14     6    11 ar  
    15     6    34 ar  
    16     7    29 1   
    17     8    36 1   
    18     9    12 1   
    19     9    14 ar  
    20     9    18 ar  
    21    10    34 ar  
    22    10    39 ar  
    23    10    45 1   
    24    11    37 1   
    25    11    38 ar  
    26    12    26 1   
    27    12    46 1   
    28    12    47 1   
    29    13    14 ar  
    30    13    27 ar  
    31    13    48 1   
    32    14    49 1   
    33    15    50 1   
    34    16    28 1   
    35    16    29 1   
    36    16    51 1   
    37    16    52 1   
    38    17    25 2   
    39    17    26 1   
    40    17    28 1   
    41    18    23 ar  
    42    18    53 1   
    43    19    21 ar  
    44    19    31 ar  
    45    19    75 1   
    46    20    54 1   
    47    20    55 1   
    48    20    56 1   
    49    20    75 1   
    50    21    24 ar  
    51    21    57 1   
    52    22    24 ar  
    53    22    29 1   
    54    22    30 ar  
    55    23    27 ar  
    56    23    58 1   
    57    24    59 1   
    58    27    60 1   
    59    28    61 1   
    60    29    62 1   
    61    30    31 ar  
    62    30    63 1   
    63    31    32 1   
    64    32    33 1   
    65    33    64 1   
    66    33    65 1   
    67    33    66 1   
    68    34    67 1   
    69    35    68 1   
    70    38    39 ar  
    71    38    69 1   
    72    39    74 1   
    73    40    74 2   
    74    41    42 1   
    75    41    70 1   
    76    41    74 1   
    77    42    71 1   
    78    42    72 1   
    79    42    73 1   
@<TRIPOS>SUBSTRUCTURE
     1 29I         1 TEMP              0 ****  ****    0 ROOT
