@<TRIPOS>MOLECULE
29J
   44    45     1     0     0
SMALL
No Charge or Current Charge


@<TRIPOS>ATOM
      1 O1          -1.5490     0.4280    -1.6540 oh         1 29J      -0.663000
      2 C5          -1.6260     0.2030    -0.2420 c6         1 29J       0.194000
      3 C           -2.9800    -0.5170     0.0730 c6         1 29J      -0.106400
      4 C4          -1.6090     1.5860     0.4890 c6         1 29J      -0.106400
      5 C3          -2.8560     2.4600     0.1890 c6         1 29J      -0.076900
      6 C2          -4.1610     1.7050     0.5250 c6         1 29J      -0.078400
      7 C1          -4.2280     0.3570    -0.2270 c6         1 29J      -0.076900
      8 C6          -0.3910    -0.6800     0.2120 c3         1 29J       0.008600
      9 C13         -0.3020    -2.0660    -0.5040 c3         1 29J       0.173800
     10 N            0.8530    -2.9310    -0.1240 n3         1 29J      -0.709600
     11 C15          0.8770    -3.3060     1.3090 c3         1 29J       0.152100
     12 C14          0.9760    -4.1120    -1.0060 c3         1 29J       0.152100
     13 C7           0.9530     0.0710     0.1390 ca         1 29J      -0.090300
     14 C12          1.5640     0.5380     1.3230 ca         1 29J      -0.057000
     15 C11          2.7860     1.2300     1.2710 ca         1 29J      -0.179500
     16 C10          3.4090     1.4620     0.0350 ca         1 29J       0.134100
     17 O            4.5930     2.1330    -0.0230 oh         1 29J      -0.537100
     18 C9           2.8120     1.0030    -1.1470 ca         1 29J      -0.179500
     19 C8           1.5900     0.3110    -1.0980 ca         1 29J      -0.057000
     20 H1          -2.2860     1.0360    -1.8690 ho         1 29J       0.445000
     21 H2          -3.0650    -1.4460    -0.5070 hc         1 29J       0.051450
     22 H3          -3.0000    -0.8150     1.1300 hc         1 29J       0.051450
     23 H4          -1.5410     1.4240     1.5740 hc         1 29J       0.051450
     24 H5          -0.7110     2.1540     0.2110 hc         1 29J       0.051450
     25 H6          -2.8060     3.3880     0.7760 hc         1 29J       0.039450
     26 H7          -2.8620     2.7660    -0.8660 hc         1 29J       0.039450
     27 H8          -4.2200     1.5290     1.6080 hc         1 29J       0.040700
     28 H9          -5.0300     2.3240     0.2620 hc         1 29J       0.040700
     29 H10         -4.3160     0.5360    -1.3070 hc         1 29J       0.039450
     30 H11         -5.1370    -0.1850     0.0690 hc         1 29J       0.039450
     31 H12         -0.5730    -0.9110     1.2680 hc         1 29J       0.046700
     32 H13         -1.2290    -2.6220    -0.3150 h1         1 29J       0.038700
     33 H14         -0.2650    -1.8830    -1.5860 h1         1 29J       0.038700
     34 H16         -0.0320    -3.8570     1.5860 h1         1 29J       0.028200
     35 H17          1.7440    -3.9440     1.5270 h1         1 29J       0.028200
     36 H18          0.9550    -2.4190     1.9510 h1         1 29J       0.028200
     37 H19          1.0460    -3.8060    -2.0580 h1         1 29J       0.028200
     38 H20          1.8800    -4.6870    -0.7620 h1         1 29J       0.028200
     39 H21          0.1070    -4.7750    -0.8970 h1         1 29J       0.028200
     40 H22          1.0900     0.3660     2.2870 ha         1 29J       0.113500
     41 H23          3.2410     1.5830     2.1930 ha         1 29J       0.116500
     42 H24          4.8580     2.3730     0.8910 ho         1 29J       0.460000
     43 H25          3.2940     1.1830    -2.1040 ha         1 29J       0.116500
     44 H26          1.1380    -0.0370    -2.0230 ha         1 29J       0.113500
@<TRIPOS>BOND
     1     1     2 1   
     2     1    20 1   
     3     2     3 1   
     4     2     4 1   
     5     2     8 1   
     6     3     7 1   
     7     3    21 1   
     8     3    22 1   
     9     4     5 1   
    10     4    23 1   
    11     4    24 1   
    12     5     6 1   
    13     5    25 1   
    14     5    26 1   
    15     6     7 1   
    16     6    27 1   
    17     6    28 1   
    18     7    29 1   
    19     7    30 1   
    20     8     9 1   
    21     8    13 1   
    22     8    31 1   
    23     9    10 1   
    24     9    32 1   
    25     9    33 1   
    26    10    11 1   
    27    10    12 1   
    28    11    34 1   
    29    11    35 1   
    30    11    36 1   
    31    12    37 1   
    32    12    38 1   
    33    12    39 1   
    34    13    14 ar  
    35    13    19 ar  
    36    14    15 ar  
    37    14    40 1   
    38    15    16 ar  
    39    15    41 1   
    40    16    17 1   
    41    16    18 ar  
    42    17    42 1   
    43    18    19 ar  
    44    18    43 1   
    45    19    44 1   
@<TRIPOS>SUBSTRUCTURE
     1 29J         1 TEMP              0 ****  ****    0 ROOT
