@<TRIPOS>MOLECULE
29J
   44    45     1     0     0
SMALL
bcc


@<TRIPOS>ATOM
      1 O1          -1.4490     0.4020    -1.6250 oh         1 29J      -0.600800
      2 C5          -1.6020     0.1920    -0.2300 c6         1 29J       0.170800
      3 C           -2.9290    -0.5360     0.0540 c6         1 29J      -0.106400
      4 C4          -1.6010     1.5340     0.5180 c6         1 29J      -0.106400
      5 C3          -2.8290     2.3920     0.2230 c6         1 29J      -0.076900
      6 C2          -4.1220     1.6420     0.5140 c6         1 29J      -0.078400
      7 C1          -4.1590     0.3190    -0.2390 c6         1 29J      -0.076900
      8 C6          -0.4020    -0.6730     0.2360 c3         1 29J       0.008600
      9 C13         -0.3370    -2.0250    -0.4860 c3         1 29J       0.173800
     10 N            0.8170    -2.8210    -0.1130 n3         1 29J      -0.709600
     11 C15          0.8060    -3.2060     1.2800 c3         1 29J       0.152100
     12 C14          0.9310    -3.9810    -0.9680 c3         1 29J       0.152100
     13 C7           0.9180     0.0540     0.1450 ca         1 29J      -0.090300
     14 C12          1.5450     0.5210     1.2950 ca         1 29J      -0.075000
     15 C11          2.7550     1.2030     1.2500 ca         1 29J      -0.197500
     16 C10          3.3720     1.4340     0.0260 ca         1 29J       0.134100
     17 O            4.5480     2.0880    -0.0920 oh         1 29J      -0.498100
     18 C9           2.7640     0.9670    -1.1380 ca         1 29J      -0.197500
     19 C8           1.5590     0.2880    -1.0710 ca         1 29J      -0.075000
     20 H1          -2.0950     1.0520    -1.9170 ho         1 29J       0.406000
     21 H2          -2.9820    -1.4540    -0.5350 hc         1 29J       0.051450
     22 H3          -2.9460    -0.8400     1.1060 hc         1 29J       0.051450
     23 H4          -1.5630     1.3310     1.5940 hc         1 29J       0.051450
     24 H5          -0.6910     2.0880     0.2780 hc         1 29J       0.051450
     25 H6          -2.7770     3.3060     0.8190 hc         1 29J       0.039450
     26 H7          -2.8240     2.7270    -0.8210 hc         1 29J       0.039450
     27 H8          -4.1930     1.4490     1.5910 hc         1 29J       0.040700
     28 H9          -4.9860     2.2550     0.2510 hc         1 29J       0.040700
     29 H10         -4.2390     0.5100    -1.3150 hc         1 29J       0.039450
     30 H11         -5.0580    -0.2440     0.0260 hc         1 29J       0.039450
     31 H12         -0.5960    -0.8580     1.2980 hc         1 29J       0.046700
     32 H13         -1.2680    -2.5850    -0.3010 h1         1 29J       0.038700
     33 H14         -0.2860    -1.8550    -1.5630 h1         1 29J       0.038700
     34 H16         -0.1010    -3.7600     1.5720 h1         1 29J       0.028200
     35 H17          1.6650    -3.8440     1.4920 h1         1 29J       0.028200
     36 H18          0.8850    -2.3330     1.9280 h1         1 29J       0.028200
     37 H19          1.0000    -3.6720    -2.0130 h1         1 29J       0.028200
     38 H20          1.8380    -4.5380    -0.7260 h1         1 29J       0.028200
     39 H21          0.0800    -4.6760    -0.8820 h1         1 29J       0.028200
     40 H22          1.0840     0.3490     2.2610 ha         1 29J       0.131500
     41 H23          3.2130     1.5470     2.1700 ha         1 29J       0.134500
     42 H24          4.8800     2.3370     0.7770 ho         1 29J       0.421000
     43 H25          3.2430     1.1330    -2.0960 ha         1 29J       0.134500
     44 H26          1.1220    -0.0700    -1.9930 ha         1 29J       0.131500
@<TRIPOS>BOND
     1     1     2 1   
     2     1    20 1   
     3     2     3 1   
     4     2     4 1   
     5     2     8 1   
     6     3     7 1   
     7     3    21 1   
     8     3    22 1   
     9     4     5 1   
    10     4    23 1   
    11     4    24 1   
    12     5     6 1   
    13     5    25 1   
    14     5    26 1   
    15     6     7 1   
    16     6    27 1   
    17     6    28 1   
    18     7    29 1   
    19     7    30 1   
    20     8     9 1   
    21     8    13 1   
    22     8    31 1   
    23     9    10 1   
    24     9    32 1   
    25     9    33 1   
    26    10    11 1   
    27    10    12 1   
    28    11    34 1   
    29    11    35 1   
    30    11    36 1   
    31    12    37 1   
    32    12    38 1   
    33    12    39 1   
    34    13    14 ar  
    35    13    19 ar  
    36    14    15 ar  
    37    14    40 1   
    38    15    16 ar  
    39    15    41 1   
    40    16    17 1   
    41    16    18 ar  
    42    17    42 1   
    43    18    19 ar  
    44    18    43 1   
    45    19    44 1   
@<TRIPOS>SUBSTRUCTURE
     1 29J         1 TEMP              0 ****  ****    0 ROOT
