@<TRIPOS>MOLECULE
29K
   63    68     1     0     0
SMALL
No Charge or Current Charge


@<TRIPOS>ATOM
      1 C10          1.8580     0.8730    -0.6620 ca         1 29K      -0.136600
      2 C13         -0.5310    -0.4230    -0.0540 ca         1 29K      -0.002200
      3 C15          0.1540    -2.6040    -0.4910 cp         1 29K      -0.077000
      4 C17         -1.9180    -3.8620    -0.0730 ca         1 29K      -0.137000
      5 C20          0.8080    -3.7770    -0.9240 ca         1 29K      -0.057000
      6 C24         -5.2770    -0.2230     0.4300 c3         1 29K      -0.076400
      7 C28         -0.8730     3.2540     0.2280 ca         1 29K      -0.009200
      8 C02          3.2380     1.2590    -1.0510 c          1 29K       0.586600
      9 N03          3.9270     0.0860    -1.3200 ns         1 29K      -0.515900
     10 C04          3.1110    -1.1210    -1.0460 c5         1 29K       0.161000
     11 C05          3.7460    -2.0050     0.0710 c3         1 29K      -0.083400
     12 C06          4.2210    -1.3210     1.3920 c3         1 29K      -0.057700
     13 C07          3.0610    -0.7720     2.2590 c3         1 29K      -0.089100
     14 C08          5.0850    -2.2990     2.2240 c3         1 29K      -0.089100
     15 C09          1.7800    -0.5050    -0.6960 ca         1 29K      -0.046300
     16 C11          0.7370     1.6730    -0.3030 cp         1 29K       0.001000
     17 C12         -0.4520     0.9840     0.0090 ca         1 29K      -0.040200
     18 C14          0.5740    -1.1980    -0.4350 cp         1 29K      -0.061000
     19 C16         -1.1850    -2.6690    -0.0980 ca         1 29K      -0.007200
     20 C18         -1.2530    -5.0410    -0.4700 ca         1 29K      -0.082000
     21 C19          0.0970    -4.9970    -0.8970 ca         1 29K      -0.142000
     22 N21         -1.5650    -1.3440     0.1760 na         1 29K      -0.088600
     23 C23         -3.9350    -0.6210    -0.2250 c3         1 29K      -0.111400
     24 C25         -6.3620     0.1420    -0.6040 c3         1 29K       0.149800
     25 N26         -7.6300     0.5120     0.0520 n8         1 29K      -0.995200
     26 N27         -1.4050     1.9640     0.3190 na         1 29K      -0.227600
     27 C29         -1.4830     4.4900     0.4600 ca         1 29K      -0.156000
     28 C30         -0.6960     5.6460     0.2910 ca         1 29K      -0.071000
     29 C31          0.6600     5.5360    -0.0980 ca         1 29K      -0.155000
     30 C32          1.2510     4.2730    -0.3250 ca         1 29K      -0.029000
     31 C33          0.4630     3.1120    -0.1580 cp         1 29K      -0.088000
     32 H1          -2.9620    -3.8840     0.2280 ha         1 29K       0.117000
     33 H2           1.8300    -3.7520    -1.2900 ha         1 29K       0.115000
     34 H3          -3.1940    -1.8430     1.4070 h1         1 29K       0.054700
     35 H4          -2.6880    -0.1570     1.4980 h1         1 29K       0.054700
     36 H5          -5.6340    -1.0550     1.0500 hc         1 29K       0.045200
     37 H6          -5.1110     0.6310     1.0990 hc         1 29K       0.045200
     38 H7           4.9010     0.1190    -1.5940 hn         1 29K       0.329500
     39 H8           3.0010    -1.7340    -1.9510 h1         1 29K       0.068700
     40 H9           3.0570    -2.8110     0.3440 hc         1 29K       0.046700
     41 H10          4.6140    -2.5050    -0.3740 hc         1 29K       0.046700
     42 H11          4.8700    -0.4750     1.1310 hc         1 29K       0.053700
     43 H12          2.5840     0.0940     1.7920 hc         1 29K       0.034200
     44 H13          2.2980    -1.5410     2.4260 hc         1 29K       0.034200
     45 H14          3.4320    -0.4420     3.2370 hc         1 29K       0.034200
     46 H15          5.9470    -2.6480     1.6430 hc         1 29K       0.034200
     47 H16          5.4670    -1.8090     3.1270 hc         1 29K       0.034200
     48 H17          4.4990    -3.1750     2.5290 hc         1 29K       0.034200
     49 H18         -1.7870    -5.9900    -0.4640 ha         1 29K       0.113000
     50 H19          0.5880    -5.9110    -1.2200 ha         1 29K       0.114000
     51 H20         -3.5750     0.2060    -0.8490 hc         1 29K       0.058700
     52 H21         -4.0980    -1.4760    -0.8940 hc         1 29K       0.058700
     53 H22         -6.0210     0.9880    -1.2170 h1         1 29K       0.031200
     54 H23         -6.5450    -0.7150    -1.2660 h1         1 29K       0.031200
     55 H24         -7.4840     1.3640     0.6060 hn         1 29K       0.393500
     56 H25         -8.3050     0.8060    -0.6660 hn         1 29K       0.393500
     57 H27         -2.3670     1.7680     0.5680 hn         1 29K       0.350000
     58 H28         -2.5270     4.5580     0.7590 ha         1 29K       0.112000
     59 H29         -1.1330     6.6280     0.4620 ha         1 29K       0.110000
     60 H30          1.2570     6.4370    -0.2240 ha         1 29K       0.116000
     61 H31          2.2920     4.2190    -0.6210 ha         1 29K       0.150000
     62 C22         -2.8490    -0.9930     0.8060 c3         1 29K       0.080600
     63 O01          3.7210     2.3740    -1.1460 o          1 29K      -0.559000
@<TRIPOS>BOND
     1     1     8 1   
     2     1    15 ar  
     3     1    16 ar  
     4     2    17 ar  
     5     2    18 ar  
     6     2    22 1   
     7     3     5 ar  
     8     3    18 1   
     9     3    19 ar  
    10     4    19 ar  
    11     4    20 ar  
    12     4    32 1   
    13     5    21 ar  
    14     5    33 1   
    15     6    23 1   
    16     6    24 1   
    17     6    36 1   
    18     6    37 1   
    19     7    26 1   
    20     7    27 ar  
    21     7    31 ar  
    22     8     9 1   
    23     8    63 2   
    24     9    10 1   
    25     9    38 1   
    26    10    11 1   
    27    10    15 1   
    28    10    39 1   
    29    11    12 1   
    30    11    40 1   
    31    11    41 1   
    32    12    13 1   
    33    12    14 1   
    34    12    42 1   
    35    13    43 1   
    36    13    44 1   
    37    13    45 1   
    38    14    46 1   
    39    14    47 1   
    40    14    48 1   
    41    15    18 ar  
    42    16    17 ar  
    43    16    31 1   
    44    17    26 1   
    45    19    22 1   
    46    20    21 ar  
    47    20    49 1   
    48    21    50 1   
    49    22    62 1   
    50    23    51 1   
    51    23    52 1   
    52    23    62 1   
    53    24    25 1   
    54    24    53 1   
    55    24    54 1   
    56    25    55 1   
    57    25    56 1   
    58    26    57 1   
    59    27    28 ar  
    60    27    58 1   
    61    28    29 ar  
    62    28    59 1   
    63    29    30 ar  
    64    29    60 1   
    65    30    31 ar  
    66    30    61 1   
    67    34    62 1   
    68    35    62 1   
@<TRIPOS>SUBSTRUCTURE
     1 29K         1 TEMP              0 ****  ****    0 ROOT
