@<TRIPOS>MOLECULE
29K
   63    68     1     0     0
SMALL
abcg2


@<TRIPOS>ATOM
      1 C10          1.7000     0.7790    -0.6760 ca         1 29K      -0.136600
      2 C13         -0.5990    -0.5300     0.2210 ca         1 29K      -0.002200
      3 C15          0.0950    -2.6520    -0.2370 cp         1 29K      -0.077000
      4 C17         -1.9320    -3.8620     0.4040 ca         1 29K      -0.137000
      5 C20          0.7000    -3.8490    -0.6240 ca         1 29K      -0.057000
      6 C24         -5.1800    -0.0760     0.1100 c3         1 29K      -0.076400
      7 C28         -0.9260     3.0510     0.5550 ca         1 29K      -0.009200
      8 C02          2.9950     1.1920    -1.2560 c          1 29K       0.586600
      9 N03          3.6380     0.0440    -1.5680 ns         1 29K      -0.515900
     10 C04          2.9560    -1.1600    -1.1490 c5         1 29K       0.161000
     11 C05          3.7680    -1.9370    -0.0990 c3         1 29K      -0.083400
     12 C06          4.1620    -1.1850     1.1780 c3         1 29K      -0.057700
     13 C07          3.0430    -1.1250     2.2140 c3         1 29K      -0.089100
     14 C08          5.3930    -1.8490     1.7940 c3         1 29K      -0.089100
     15 C09          1.6500    -0.5980    -0.6730 ca         1 29K      -0.046300
     16 C11          0.6220     1.5440    -0.1910 cp         1 29K       0.001000
     17 C12         -0.5210     0.8690     0.2830 ca         1 29K      -0.040200
     18 C14          0.4970    -1.2720    -0.2630 cp         1 29K      -0.061000
     19 C16         -1.2210    -2.6730     0.2660 ca         1 29K      -0.007200
     20 C18         -1.3040    -5.0350     0.0260 ca         1 29K      -0.082000
     21 C19         -0.0020    -5.0320    -0.4870 ca         1 29K      -0.142000
     22 N21         -1.6190    -1.3870     0.5570 na         1 29K      -0.088600
     23 C23         -3.7770    -0.5130    -0.2880 c3         1 29K      -0.111400
     24 C25         -5.9640     0.4760    -1.0710 c3         1 29K       0.149800
     25 N26         -7.3040     0.8760    -0.6690 n8         1 29K      -0.995200
     26 N27         -1.4360     1.7940     0.7200 na         1 29K      -0.227600
     27 C29         -1.5070     4.2760     0.8750 ca         1 29K      -0.156000
     28 C30         -0.7810     5.4170     0.5960 ca         1 29K      -0.071000
     29 C31          0.4940     5.3440     0.0180 ca         1 29K      -0.155000
     30 C32          1.0680     4.1250    -0.2920 ca         1 29K      -0.029000
     31 C33          0.3580     2.9510    -0.0220 cp         1 29K      -0.088000
     32 H1          -2.9430    -3.8830     0.7890 ha         1 29K       0.117000
     33 H2           1.7000    -3.8630    -1.0380 ha         1 29K       0.115000
     34 H3          -3.4590    -1.8810     1.3480 h1         1 29K       0.054700
     35 H4          -2.9470    -0.2710     1.7100 h1         1 29K       0.054700
     36 H5          -5.7270    -0.9170     0.5460 hc         1 29K       0.045200
     37 H6          -5.1150     0.6920     0.8900 hc         1 29K       0.045200
     38 H7           4.5860     0.0360    -1.9110 hn         1 29K       0.329500
     39 H8           2.8010    -1.8240    -2.0070 h1         1 29K       0.068700
     40 H9           3.2250    -2.8460     0.1700 hc         1 29K       0.046700
     41 H10          4.6750    -2.2770    -0.6090 hc         1 29K       0.046700
     42 H11          4.4410    -0.1610     0.9090 hc         1 29K       0.053700
     43 H12          2.1620    -0.5950     1.8560 hc         1 29K       0.034200
     44 H13          2.7270    -2.1300     2.5020 hc         1 29K       0.034200
     45 H14          3.3840    -0.6150     3.1170 hc         1 29K       0.034200
     46 H15          6.2390    -1.8440     1.1060 hc         1 29K       0.034200
     47 H16          5.7000    -1.3330     2.7050 hc         1 29K       0.034200
     48 H17          5.1850    -2.8890     2.0580 hc         1 29K       0.034200
     49 H18         -1.8350    -5.9730     0.1270 ha         1 29K       0.113000
     50 H19          0.4580    -5.9660    -0.7820 ha         1 29K       0.114000
     51 H20         -3.2550     0.3220    -0.7660 hc         1 29K       0.058700
     52 H21         -3.8300    -1.3090    -1.0360 hc         1 29K       0.058700
     53 H22         -5.3820     1.2890    -1.5300 h1         1 29K       0.031200
     54 H23         -6.0540    -0.3020    -1.8350 h1         1 29K       0.031200
     55 H24         -7.2410     1.6800    -0.0560 hn         1 29K       0.393500
     56 H25         -7.8160     1.1970    -1.4810 hn         1 29K       0.393500
     57 H27         -2.2970     1.5970     1.1990 hn         1 29K       0.350000
     58 H28         -2.4920     4.3290     1.3210 ha         1 29K       0.112000
     59 H29         -1.2060     6.3850     0.8280 ha         1 29K       0.110000
     60 H30          1.0360     6.2580    -0.1880 ha         1 29K       0.116000
     61 H31          2.0510     4.0770    -0.7360 ha         1 29K       0.150000
     62 C22         -2.9730    -1.0110     0.9070 c3         1 29K       0.080600
     63 O01          3.4200     2.3220    -1.4500 o          1 29K      -0.559000
@<TRIPOS>BOND
     1     1     8 1   
     2     1    15 ar  
     3     1    16 ar  
     4     2    17 ar  
     5     2    18 ar  
     6     2    22 1   
     7     3     5 ar  
     8     3    18 1   
     9     3    19 ar  
    10     4    19 ar  
    11     4    20 ar  
    12     4    32 1   
    13     5    21 ar  
    14     5    33 1   
    15     6    23 1   
    16     6    24 1   
    17     6    36 1   
    18     6    37 1   
    19     7    26 1   
    20     7    27 ar  
    21     7    31 ar  
    22     8     9 1   
    23     8    63 2   
    24     9    10 1   
    25     9    38 1   
    26    10    11 1   
    27    10    15 1   
    28    10    39 1   
    29    11    12 1   
    30    11    40 1   
    31    11    41 1   
    32    12    13 1   
    33    12    14 1   
    34    12    42 1   
    35    13    43 1   
    36    13    44 1   
    37    13    45 1   
    38    14    46 1   
    39    14    47 1   
    40    14    48 1   
    41    15    18 ar  
    42    16    17 ar  
    43    16    31 1   
    44    17    26 1   
    45    19    22 1   
    46    20    21 ar  
    47    20    49 1   
    48    21    50 1   
    49    22    62 1   
    50    23    51 1   
    51    23    52 1   
    52    23    62 1   
    53    24    25 1   
    54    24    53 1   
    55    24    54 1   
    56    25    55 1   
    57    25    56 1   
    58    26    57 1   
    59    27    28 ar  
    60    27    58 1   
    61    28    29 ar  
    62    28    59 1   
    63    29    30 ar  
    64    29    60 1   
    65    30    31 ar  
    66    30    61 1   
    67    34    62 1   
    68    35    62 1   
@<TRIPOS>SUBSTRUCTURE
     1 29K         1 TEMP              0 ****  ****    0 ROOT
