@<TRIPOS>MOLECULE
29L
   43    46     1     0     0
SMALL
No Charge or Current Charge


@<TRIPOS>ATOM
      1 C1          26.5090    41.0160   -42.2240 ca         1 29L      -0.123000
      2 C2          25.2530    41.6540   -42.2330 ca         1 29L      -0.058000
      3 C3          24.2940    41.2400   -41.2990 ca         1 29L      -0.152900
      4 C4          24.5350    40.2210   -40.4060 ca         1 29L      -0.064300
      5 C5          25.7820    39.5790   -40.3900 ca         1 29L      -0.098000
      6 C6          26.7830    39.9620   -41.3160 ca         1 29L       0.023000
      7 C7          28.1040    39.3170   -41.3070 cc         1 29L      -0.143000
      8 C8          29.2150    40.0740   -41.5370 cd         1 29L      -0.155000
      9 N9          30.2870    39.2350   -41.2320 na         1 29L       0.133800
     10 N10         29.8770    37.9890   -40.7830 nd         1 29L      -0.491800
     11 C11         28.5570    38.0590   -40.8300 cc         1 29L       0.307500
     12 C12         27.7360    36.8600   -40.5700 ca         1 29L      -0.075500
     13 C13         26.4710    36.6640   -41.1660 ca         1 29L      -0.142500
     14 C14         25.7600    35.4740   -40.9300 ca         1 29L       0.324900
     15 N15         26.2390    34.4670   -40.1660 nb         1 29L      -0.663000
     16 C16         27.4680    34.6260   -39.6240 ca         1 29L       0.324900
     17 C17         28.2450    35.7820   -39.8110 ca         1 29L      -0.142500
     18 C18         31.7180    39.5860   -41.2910 c3         1 29L       0.085600
     19 C19         32.1900    40.0960   -42.6720 c3         1 29L       0.141600
     20 O20         32.0980    39.0610   -43.6660 oh         1 29L      -0.649000
     21 C21         23.3440    39.9170   -39.5040 c5         1 29L      -0.034100
     22 C22         22.1900    40.8700   -40.0500 c5         1 29L      -0.139700
     23 C23         22.9210    41.6950   -41.1150 ce         1 29L       0.433900
     24 N24         22.2680    42.4290   -41.9760 n2         1 29L      -0.331700
     25 O25         21.0390    42.9700   -41.5370 oh         1 29L      -0.529000
     26 H1          27.2600    41.3270   -42.9450 ha         1 29L       0.114000
     27 H2          25.0380    42.4490   -42.9440 ha         1 29L       0.128000
     28 H3          25.9750    38.8060   -39.6510 ha         1 29L       0.125000
     29 H4          29.3370    41.1100   -41.8300 h4         1 29L       0.155000
     30 H5          26.0400    37.4010   -41.8350 ha         1 29L       0.131500
     31 H6          24.7810    35.3160   -41.3810 h4         1 29L       0.018600
     32 H7          27.8440    33.7970   -39.0250 h4         1 29L       0.018600
     33 H8          29.2270    35.8350   -39.3510 ha         1 29L       0.131500
     34 H9          32.3140    38.7100   -41.0080 h1         1 29L       0.079200
     35 H10         31.9030    40.3670   -40.5450 h1         1 29L       0.079200
     36 H11         33.2300    40.4350   -42.5810 h1         1 29L       0.031200
     37 H12         31.5850    40.9640   -42.9650 h1         1 29L       0.031200
     38 H13         32.4140    39.4450   -44.5140 ho         1 29L       0.447000
     39 H14         23.0520    38.8620   -39.5560 hc         1 29L       0.060200
     40 H15         23.5750    40.1320   -38.4540 hc         1 29L       0.060200
     41 H16         21.7810    41.5070   -39.2580 hc         1 29L       0.071700
     42 H17         21.3630    40.3000   -40.4870 hc         1 29L       0.071700
     43 H18         20.6940    43.4860   -42.3070 ho         1 29L       0.462000
@<TRIPOS>BOND
     1     1     2 ar  
     2     1     6 ar  
     3     1    26 1   
     4     2     3 ar  
     5     2    27 1   
     6     3     4 ar  
     7     3    23 1   
     8     4     5 ar  
     9     4    21 1   
    10     5     6 ar  
    11     5    28 1   
    12     6     7 1   
    13     7     8 2   
    14     7    11 1   
    15     8     9 1   
    16     8    29 1   
    17     9    10 1   
    18     9    18 1   
    19    10    11 2   
    20    11    12 1   
    21    12    13 ar  
    22    12    17 ar  
    23    13    14 ar  
    24    13    30 1   
    25    14    15 ar  
    26    14    31 1   
    27    15    16 ar  
    28    16    17 ar  
    29    16    32 1   
    30    17    33 1   
    31    18    19 1   
    32    18    34 1   
    33    18    35 1   
    34    19    20 1   
    35    19    36 1   
    36    19    37 1   
    37    20    38 1   
    38    21    22 1   
    39    21    39 1   
    40    21    40 1   
    41    22    23 1   
    42    22    41 1   
    43    22    42 1   
    44    23    24 2   
    45    24    25 1   
    46    25    43 1   
@<TRIPOS>SUBSTRUCTURE
     1 29L         1 TEMP              0 ****  ****    0 ROOT
