@<TRIPOS>MOLECULE
29L
   43    46     1     0     0
SMALL
abcg2


@<TRIPOS>ATOM
      1 C1          26.4540    41.0360   -42.1780 ca         1 29L      -0.123000
      2 C2          25.1860    41.5920   -42.2350 ca         1 29L      -0.058000
      3 C3          24.2240    41.1690   -41.3190 ca         1 29L      -0.152900
      4 C4          24.5350    40.2070   -40.3530 ca         1 29L      -0.064300
      5 C5          25.8070    39.6600   -40.2950 ca         1 29L      -0.098000
      6 C6          26.7810    40.0640   -41.2150 ca         1 29L       0.023000
      7 C7          28.1360    39.5020   -41.1730 cc         1 29L      -0.143000
      8 C8          29.3170    40.2100   -41.3200 cd         1 29L      -0.155000
      9 N9          30.3350    39.3410   -41.1450 na         1 29L       0.133800
     10 N10         29.8980    38.0950   -40.8990 nd         1 29L      -0.491800
     11 C11         28.5630    38.1690   -40.9110 cc         1 29L       0.307500
     12 C12         27.7680    36.9520   -40.7130 ca         1 29L      -0.075500
     13 C13         26.5920    36.7170   -41.4300 ca         1 29L      -0.142500
     14 C14         25.8920    35.5400   -41.2150 ca         1 29L       0.324900
     15 N15         26.2760    34.5950   -40.3500 nb         1 29L      -0.663000
     16 C16         27.4060    34.8190   -39.6700 ca         1 29L       0.324900
     17 C17         28.1750    35.9650   -39.8130 ca         1 29L      -0.142500
     18 C18         31.7600    39.6160   -41.2680 c3         1 29L       0.085600
     19 C19         32.1840    39.8810   -42.7000 c3         1 29L       0.141600
     20 O20         31.9530    38.7050   -43.4720 oh         1 29L      -0.649000
     21 C21         23.3510    39.9110   -39.4680 c5         1 29L      -0.034100
     22 C22         22.2140    40.8060   -40.0170 c5         1 29L      -0.139700
     23 C23         22.8290    41.5790   -41.1620 ce         1 29L       0.433900
     24 N24         22.2770    42.4570   -41.9070 n2         1 29L      -0.331700
     25 O25         20.9280    42.6610   -41.5430 oh         1 29L      -0.529000
     26 H1          27.2060    41.3380   -42.8950 ha         1 29L       0.114000
     27 H2          24.9470    42.3350   -42.9840 ha         1 29L       0.128000
     28 H3          26.0530    38.9260   -39.5390 ha         1 29L       0.125000
     29 H4          29.4920    41.2580   -41.5020 h4         1 29L       0.155000
     30 H5          26.2300    37.4340   -42.1520 ha         1 29L       0.131500
     31 H6          24.9790    35.3470   -41.7680 h4         1 29L       0.018600
     32 H7          27.7100    34.0480   -38.9700 h4         1 29L       0.018600
     33 H8          29.0730    36.0930   -39.2260 ha         1 29L       0.131500
     34 H9          32.2800    38.7480   -40.8680 h1         1 29L       0.079200
     35 H10         32.0040    40.4850   -40.6560 h1         1 29L       0.079200
     36 H11         33.2460    40.1470   -42.6940 h1         1 29L       0.031200
     37 H12         31.6210    40.7270   -43.1050 h1         1 29L       0.031200
     38 H13         32.1270    38.9110   -44.3980 ho         1 29L       0.447000
     39 H14         23.0870    38.8520   -39.5070 hc         1 29L       0.060200
     40 H15         23.5760    40.1420   -38.4250 hc         1 29L       0.060200
     41 H16         21.8240    41.4950   -39.2660 hc         1 29L       0.071700
     42 H17         21.3640    40.2230   -40.3760 hc         1 29L       0.071700
     43 H18         20.6310    43.3350   -42.1690 ho         1 29L       0.462000
@<TRIPOS>BOND
     1     1     2 ar  
     2     1     6 ar  
     3     1    26 1   
     4     2     3 ar  
     5     2    27 1   
     6     3     4 ar  
     7     3    23 1   
     8     4     5 ar  
     9     4    21 1   
    10     5     6 ar  
    11     5    28 1   
    12     6     7 1   
    13     7     8 2   
    14     7    11 1   
    15     8     9 1   
    16     8    29 1   
    17     9    10 1   
    18     9    18 1   
    19    10    11 2   
    20    11    12 1   
    21    12    13 ar  
    22    12    17 ar  
    23    13    14 ar  
    24    13    30 1   
    25    14    15 ar  
    26    14    31 1   
    27    15    16 ar  
    28    16    17 ar  
    29    16    32 1   
    30    17    33 1   
    31    18    19 1   
    32    18    34 1   
    33    18    35 1   
    34    19    20 1   
    35    19    36 1   
    36    19    37 1   
    37    20    38 1   
    38    21    22 1   
    39    21    39 1   
    40    21    40 1   
    41    22    23 1   
    42    22    41 1   
    43    22    42 1   
    44    23    24 2   
    45    24    25 1   
    46    25    43 1   
@<TRIPOS>SUBSTRUCTURE
     1 29L         1 TEMP              0 ****  ****    0 ROOT
