@<TRIPOS>MOLECULE
29M
   68    71     1     0     0
SMALL
No Charge or Current Charge


@<TRIPOS>ATOM
      1 C           -3.0920     1.5720     0.8940 ca         1 29M      -0.104300
      2 F            4.1640     4.8200     0.1010 f          1 29M      -0.180000
      3 N           -0.6050    -1.2900    -0.8310 na         1 29M      -0.228700
      4 O           -0.1660     3.3860    -1.4260 os         1 29M      -0.330100
      5 S           -5.0290    -2.5120    -0.3250 s6         1 29M       1.193100
      6 C1          -3.6650     0.2970     0.6430 ca         1 29M      -0.039000
      7 N1           2.7590    -1.8850    -0.4970 n3         1 29M      -0.713600
      8 O1          -5.6530    -2.2290     0.9690 o          1 29M      -0.527500
      9 C2          -2.9150    -0.7440     0.0410 ca         1 29M       0.202000
     10 N2          -3.4460    -2.0190    -0.2100 nu         1 29M      -0.887100
     11 O2          -4.9600    -3.8810    -0.8370 o          1 29M      -0.527500
     12 C3          -1.5780    -0.4550    -0.2960 ca         1 29M      -0.069200
     13 C4           0.6250    -0.6100    -0.9430 cc         1 29M      -0.057300
     14 C5           0.3470     0.6990    -0.5500 cd         1 29M      -0.034400
     15 C6          -1.0280     0.7810    -0.0840 ca         1 29M      -0.069800
     16 C7          -1.7490     1.8150     0.5310 ca         1 29M      -0.034000
     17 C8           1.3330     1.7960    -0.3970 ca         1 29M      -0.074800
     18 C9           2.6080     1.5120     0.1370 ca         1 29M      -0.040000
     19 C10          3.5580     2.5300     0.3080 ca         1 29M      -0.196000
     20 C11          3.2480     3.8410    -0.0630 ca         1 29M       0.211000
     21 C12          1.9990     4.1450    -0.6160 ca         1 29M      -0.255000
     22 C13          1.0360     3.1270    -0.7930 ca         1 29M       0.177100
     23 C14         -0.5530     4.7030    -1.8540 c3         1 29M       0.144900
     24 C15          1.8870    -1.2290    -1.5060 c3         1 29M       0.220000
     25 C16          2.1040    -3.0060     0.2190 c3         1 29M       0.142100
     26 C17          4.0840    -2.2480    -1.0560 c3         1 29M       0.210100
     27 C18          5.1060    -2.6390     0.0080 ca         1 29M      -0.089300
     28 C19          5.5480    -3.9720     0.1220 ca         1 29M      -0.096500
     29 C20          6.4910    -4.3250     1.1040 ca         1 29M      -0.113000
     30 C21          6.9980    -3.3480     1.9770 ca         1 29M      -0.105000
     31 C22          6.5610    -2.0160     1.8680 ca         1 29M      -0.113000
     32 C23          5.6180    -1.6630     0.8870 ca         1 29M      -0.096500
     33 C24         -5.7460    -1.4650    -1.5760 c3         1 29M      -0.383100
     34 C25         -3.9120     2.6800     1.5570 c3         1 29M      -0.010400
     35 C26         -5.1190     3.0880     0.6850 c3         1 29M      -0.086600
     36 C27         -4.3450     2.2860     2.9860 c3         1 29M      -0.086600
     37 H1          -0.7420    -2.2640    -1.0700 hn         1 29M       0.341000
     38 H2          -4.6930     0.1240     0.9370 ha         1 29M       0.138000
     39 H4          -2.9220    -2.6570    -0.7910 hn         1 29M       0.487000
     40 H5          -1.2840     2.7730     0.7410 ha         1 29M       0.122000
     41 H6           2.8520     0.5060     0.4650 ha         1 29M       0.143000
     42 H7           4.5320     2.3030     0.7360 ha         1 29M       0.134000
     43 H8           1.8070     5.1710    -0.9130 ha         1 29M       0.135000
     44 H9           0.1510     5.0960    -2.5990 h1         1 29M       0.043367
     45 H10         -1.5500     4.6750    -2.3130 h1         1 29M       0.043367
     46 H11         -0.5910     5.3950    -1.0030 h1         1 29M       0.043367
     47 H12          2.4450    -0.4310    -2.0150 h1         1 29M       0.046200
     48 H13          1.6040    -1.9550    -2.2820 h1         1 29M       0.046200
     49 H14          1.8380    -3.8130    -0.4770 h1         1 29M       0.036033
     50 H15          2.7650    -3.4230     0.9890 h1         1 29M       0.036033
     51 H16          1.1900    -2.6700     0.7260 h1         1 29M       0.036033
     52 H17          3.9740    -3.0710    -1.7760 h1         1 29M       0.039700
     53 H18          4.4980    -1.3960    -1.6120 h1         1 29M       0.039700
     54 H19          5.1600    -4.7360    -0.5480 ha         1 29M       0.113500
     55 H20          6.8280    -5.3560     1.1880 ha         1 29M       0.113500
     56 H21          7.7280    -3.6210     2.7360 ha         1 29M       0.113000
     57 H22          6.9520    -1.2590     2.5440 ha         1 29M       0.113500
     58 H23          5.2810    -0.6320     0.8080 ha         1 29M       0.113500
     59 H24         -5.1710    -1.6080    -2.4960 h1         1 29M       0.101033
     60 H25         -6.7870    -1.7790    -1.7080 h1         1 29M       0.101033
     61 H26         -5.6870    -0.4310    -1.2270 h1         1 29M       0.101033
     62 H27         -3.2830     3.5740     1.6570 hc         1 29M       0.045700
     63 H28         -5.6490     3.9380     1.1310 hc         1 29M       0.036533
     64 H29         -4.7860     3.3840    -0.3170 hc         1 29M       0.036533
     65 H30         -5.8310     2.2610     0.5790 hc         1 29M       0.036533
     66 H31         -3.4710     2.0200     3.5930 hc         1 29M       0.036533
     67 H32         -4.8580     3.1210     3.4790 hc         1 29M       0.036533
     68 H33         -5.0280     1.4280     2.9730 hc         1 29M       0.036533
@<TRIPOS>BOND
     1     1     6 ar  
     2     1    16 ar  
     3     1    34 1   
     4     2    20 1   
     5     3    12 1   
     6     3    13 1   
     7     3    37 1   
     8     4    22 1   
     9     4    23 1   
    10     5     8 2   
    11     5    10 1   
    12     5    11 2   
    13     5    33 1   
    14     6     9 ar  
    15     6    38 1   
    16     7    24 1   
    17     7    25 1   
    18     7    26 1   
    19     9    10 1   
    20     9    12 ar  
    21    10    39 1   
    22    12    15 ar  
    23    13    14 2   
    24    13    24 1   
    25    14    15 1   
    26    14    17 1   
    27    15    16 ar  
    28    16    40 1   
    29    17    18 ar  
    30    17    22 ar  
    31    18    19 ar  
    32    18    41 1   
    33    19    20 ar  
    34    19    42 1   
    35    20    21 ar  
    36    21    22 ar  
    37    21    43 1   
    38    23    44 1   
    39    23    45 1   
    40    23    46 1   
    41    24    47 1   
    42    24    48 1   
    43    25    49 1   
    44    25    50 1   
    45    25    51 1   
    46    26    27 1   
    47    26    52 1   
    48    26    53 1   
    49    27    28 ar  
    50    27    32 ar  
    51    28    29 ar  
    52    28    54 1   
    53    29    30 ar  
    54    29    55 1   
    55    30    31 ar  
    56    30    56 1   
    57    31    32 ar  
    58    31    57 1   
    59    32    58 1   
    60    33    59 1   
    61    33    60 1   
    62    33    61 1   
    63    34    35 1   
    64    34    36 1   
    65    34    62 1   
    66    35    63 1   
    67    35    64 1   
    68    35    65 1   
    69    36    66 1   
    70    36    67 1   
    71    36    68 1   
@<TRIPOS>SUBSTRUCTURE
     1 29M         1 TEMP              0 ****  ****    0 ROOT
