@<TRIPOS>MOLECULE
29M
   68    71     1     0     0
SMALL
bcc


@<TRIPOS>ATOM
      1 C           -3.1490     1.6360     1.2820 ca         1 29M      -0.104300
      2 F            4.1760     4.6020    -0.3640 f          1 29M      -0.144900
      3 N           -0.8510    -1.2720    -0.5130 na         1 29M      -0.178400
      4 O           -0.2160     3.1640    -1.4060 os         1 29M      -0.306900
      5 S           -4.7220    -2.1530    -0.9670 s6         1 29M       1.223900
      6 C1          -3.7440     0.3750     1.0940 ca         1 29M      -0.057000
      7 N1           2.4520    -1.8190    -0.4220 n3         1 29M      -0.713600
      8 O1          -5.6960    -1.0760    -0.9370 o          1 29M      -0.598300
      9 C2          -3.0670    -0.6690     0.4990 ca         1 29M       0.063600
     10 N2          -3.6920    -1.9290     0.3160 nu         1 29M      -0.693500
     11 O2          -5.1700    -3.5330    -0.8800 o          1 29M      -0.598300
     12 C3          -1.7500    -0.4430     0.0870 ca         1 29M      -0.069200
     13 C4           0.3290    -0.6050    -0.7190 cc         1 29M      -0.057300
     14 C5           0.2010     0.6850    -0.2670 cd         1 29M      -0.034400
     15 C6          -1.1280     0.8070     0.2630 ca         1 29M      -0.069800
     16 C7          -1.8460     1.8440     0.8680 ca         1 29M      -0.052000
     17 C8           1.2450     1.7150    -0.3020 ca         1 29M      -0.074800
     18 C9           2.5120     1.4660     0.2130 ca         1 29M      -0.058000
     19 C10          3.5230     2.4190     0.1970 ca         1 29M      -0.214000
     20 C11          3.2280     3.6500    -0.3450 ca         1 29M       0.175900
     21 C12          1.9910     3.9570    -0.8810 ca         1 29M      -0.273000
     22 C13          0.9990     2.9800    -0.8710 ca         1 29M       0.177100
     23 C14         -0.5700     4.4470    -1.8830 c3         1 29M       0.121700
     24 C15          1.4910    -1.2760    -1.3710 c3         1 29M       0.220000
     25 C16          1.8810    -2.8760     0.3880 c3         1 29M       0.142100
     26 C17          3.6530    -2.2500    -1.1170 c3         1 29M       0.210100
     27 C18          4.7800    -2.5690    -0.1720 ca         1 29M      -0.089300
     28 C19          5.3680    -3.8290    -0.1560 ca         1 29M      -0.114500
     29 C20          6.4170    -4.1140     0.7110 ca         1 29M      -0.131000
     30 C21          6.8880    -3.1380     1.5760 ca         1 29M      -0.123000
     31 C22          6.3050    -1.8750     1.5690 ca         1 29M      -0.131000
     32 C23          5.2600    -1.5950     0.7020 ca         1 29M      -0.114500
     33 C24         -3.7410    -1.9580    -2.4390 c3         1 29M      -0.272300
     34 C25         -3.9320     2.7540     1.9320 c3         1 29M      -0.010400
     35 C26         -5.1670     3.1260     1.1100 c3         1 29M      -0.086600
     36 C27         -4.3160     2.4150     3.3730 c3         1 29M      -0.086600
     37 H1          -1.0030    -2.2370    -0.7570 hn         1 29M       0.290700
     38 H2          -4.7580     0.2010     1.4290 ha         1 29M       0.156000
     39 H4          -3.1370    -2.7520     0.5240 hn         1 29M       0.431800
     40 H5          -1.3870     2.8120     1.0240 ha         1 29M       0.140000
     41 H6           2.7110     0.4880     0.6330 ha         1 29M       0.161000
     42 H7           4.5020     2.2090     0.6060 ha         1 29M       0.152000
     43 H8           1.8290     4.9380    -1.3070 ha         1 29M       0.153000
     44 H9           0.0390     4.7470    -2.7390 h1         1 29M       0.043367
     45 H10         -1.6080     4.3820    -2.1990 h1         1 29M       0.043367
     46 H11         -0.4830     5.2070    -1.1030 h1         1 29M       0.043367
     47 H12          2.0070    -0.5360    -1.9880 h1         1 29M       0.046200
     48 H13          1.1160    -2.0520    -2.0600 h1         1 29M       0.046200
     49 H14          1.4910    -3.7150    -0.2100 h1         1 29M       0.036033
     50 H15          2.6320    -3.2730     1.0690 h1         1 29M       0.036033
     51 H16          1.0670    -2.4890     1.0000 h1         1 29M       0.036033
     52 H17          3.4670    -3.1170    -1.7720 h1         1 29M       0.039700
     53 H18          3.9630    -1.4320    -1.7740 h1         1 29M       0.039700
     54 H19          5.0000    -4.5970    -0.8270 ha         1 29M       0.131500
     55 H20          6.8610    -5.1010     0.7110 ha         1 29M       0.131500
     56 H21          7.7040    -3.3560     2.2530 ha         1 29M       0.131000
     57 H22          6.6690    -1.1080     2.2410 ha         1 29M       0.131500
     58 H23          4.8140    -0.6080     0.7000 ha         1 29M       0.131500
     59 H24         -2.9740    -2.7280    -2.4670 h1         1 29M       0.101033
     60 H25         -4.4030    -2.0620    -3.2970 h1         1 29M       0.101033
     61 H26         -3.2900    -0.9680    -2.4460 h1         1 29M       0.101033
     62 H27         -3.2770     3.6300     1.9610 hc         1 29M       0.045700
     63 H28         -5.6740     3.9890     1.5440 hc         1 29M       0.036533
     64 H29         -4.8990     3.3750     0.0830 hc         1 29M       0.036533
     65 H30         -5.8860     2.3050     1.0770 hc         1 29M       0.036533
     66 H31         -3.4380     2.1550     3.9660 hc         1 29M       0.036533
     67 H32         -4.8040     3.2640     3.8520 hc         1 29M       0.036533
     68 H33         -5.0090     1.5720     3.4160 hc         1 29M       0.036533
@<TRIPOS>BOND
     1     1     6 ar  
     2     1    16 ar  
     3     1    34 1   
     4     2    20 1   
     5     3    12 1   
     6     3    13 1   
     7     3    37 1   
     8     4    22 1   
     9     4    23 1   
    10     5     8 2   
    11     5    10 1   
    12     5    11 2   
    13     5    33 1   
    14     6     9 ar  
    15     6    38 1   
    16     7    24 1   
    17     7    25 1   
    18     7    26 1   
    19     9    10 1   
    20     9    12 ar  
    21    10    39 1   
    22    12    15 ar  
    23    13    14 2   
    24    13    24 1   
    25    14    15 1   
    26    14    17 1   
    27    15    16 ar  
    28    16    40 1   
    29    17    18 ar  
    30    17    22 ar  
    31    18    19 ar  
    32    18    41 1   
    33    19    20 ar  
    34    19    42 1   
    35    20    21 ar  
    36    21    22 ar  
    37    21    43 1   
    38    23    44 1   
    39    23    45 1   
    40    23    46 1   
    41    24    47 1   
    42    24    48 1   
    43    25    49 1   
    44    25    50 1   
    45    25    51 1   
    46    26    27 1   
    47    26    52 1   
    48    26    53 1   
    49    27    28 ar  
    50    27    32 ar  
    51    28    29 ar  
    52    28    54 1   
    53    29    30 ar  
    54    29    55 1   
    55    30    31 ar  
    56    30    56 1   
    57    31    32 ar  
    58    31    57 1   
    59    32    58 1   
    60    33    59 1   
    61    33    60 1   
    62    33    61 1   
    63    34    35 1   
    64    34    36 1   
    65    34    62 1   
    66    35    63 1   
    67    35    64 1   
    68    35    65 1   
    69    36    66 1   
    70    36    67 1   
    71    36    68 1   
@<TRIPOS>SUBSTRUCTURE
     1 29M         1 TEMP              0 ****  ****    0 ROOT
