@<TRIPOS>MOLECULE
29N
   39    39     1     0     0
SMALL
abcg2


@<TRIPOS>ATOM
      1 N1          -1.3610    -0.1740     1.0220 n          1 29N      -0.452467
      2 C2          -0.8510     1.1040     1.4720 c6         1 29N       0.248400
      3 N3           0.5280     1.2630     1.0510 n          1 29N      -0.452467
      4 C4           1.3650     0.1760     1.5130 c6         1 29N       0.248400
      5 N5           0.8280    -1.0900     1.0530 n          1 29N      -0.452467
      6 C6          -0.5410    -1.2780     1.4840 c6         1 29N       0.248400
      7 C7          -2.2830    -0.3490     0.0320 c          1 29N       0.612767
      8 C8          -3.0220     0.8820    -0.4480 c3         1 29N      -0.159400
      9 O9          -2.5210    -1.4550    -0.4230 o          1 29N      -0.596433
     10 C10          1.4340    -1.7840     0.0460 c          1 29N       0.612767
     11 C11          0.7360    -3.0310    -0.4550 c3         1 29N      -0.159400
     12 O12          2.5110    -1.4330    -0.4050 o          1 29N      -0.596433
     13 C13          0.8520     2.1320     0.0480 c          1 29N       0.612767
     14 C14          2.3000     2.1740    -0.3920 c3         1 29N      -0.159400
     15 O15          0.0150     2.8730    -0.4400 o          1 29N      -0.596433
     16 C16         -4.1610     0.5580    -1.3990 c3         1 29N      -0.076433
     17 C19          1.5600    -3.8030    -1.4700 c3         1 29N      -0.076433
     18 C25          2.5710     3.2500    -1.4290 c3         1 29N      -0.076433
     19 H1          -1.4480     1.9290     1.1050 h2         1 29N       0.077200
     20 H2          -0.8820     1.1230     2.5650 h2         1 29N       0.077200
     21 H3           2.3930     0.2900     1.1930 h2         1 29N       0.077200
     22 H4           1.3540     0.1730     2.6070 h2         1 29N       0.077200
     23 H5          -0.5590    -1.2830     2.5770 h2         1 29N       0.077200
     24 H6          -0.9520    -2.2190     1.1410 h2         1 29N       0.077200
     25 H7          -3.4040     1.4370     0.4120 hc         1 29N       0.070533
     26 H8          -2.3070     1.5510    -0.9360 hc         1 29N       0.070533
     27 H9           0.4970    -3.6750     0.3970 hc         1 29N       0.070533
     28 H10         -0.2260    -2.7490    -0.8910 hc         1 29N       0.070533
     29 H11          2.9340     2.3300     0.4850 hc         1 29N       0.070533
     30 H12          2.5820     1.1960    -0.7910 hc         1 29N       0.070533
     31 H13         -4.6440     1.4830    -1.7160 hc         1 29N       0.042589
     32 H14         -3.8120     0.0430    -2.2930 hc         1 29N       0.042589
     33 H15         -4.9180    -0.0650    -0.9250 hc         1 29N       0.042589
     34 H16          1.7530    -3.2150    -2.3660 hc         1 29N       0.042589
     35 H17          2.5180    -4.1170    -1.0590 hc         1 29N       0.042589
     36 H18          1.0190    -4.7000    -1.7730 hc         1 29N       0.042589
     37 H19          1.9950     3.0870    -2.3380 hc         1 29N       0.042589
     38 H20          2.3350     4.2450    -1.0530 hc         1 29N       0.042589
     39 H21          3.6260     3.2390    -1.7000 hc         1 29N       0.042589
@<TRIPOS>BOND
     1     1     2 1   
     2     1     6 1   
     3     1     7 1   
     4     2     3 1   
     5     2    19 1   
     6     2    20 1   
     7     3     4 1   
     8     3    13 1   
     9     4     5 1   
    10     4    21 1   
    11     4    22 1   
    12     5     6 1   
    13     5    10 1   
    14     6    23 1   
    15     6    24 1   
    16     7     8 1   
    17     7     9 2   
    18     8    16 1   
    19     8    25 1   
    20     8    26 1   
    21    10    11 1   
    22    10    12 2   
    23    11    17 1   
    24    11    27 1   
    25    11    28 1   
    26    13    14 1   
    27    13    15 2   
    28    14    18 1   
    29    14    29 1   
    30    14    30 1   
    31    16    31 1   
    32    16    32 1   
    33    16    33 1   
    34    17    34 1   
    35    17    35 1   
    36    17    36 1   
    37    18    37 1   
    38    18    38 1   
    39    18    39 1   
@<TRIPOS>SUBSTRUCTURE
     1 29N         1 TEMP              0 ****  ****    0 ROOT
