@<TRIPOS>MOLECULE
29N
   39    39     1     0     0
SMALL
No Charge or Current Charge


@<TRIPOS>ATOM
      1 N1          -1.3850    -0.1730     1.0620 n          1 29N      -0.452467
      2 C2          -0.8590     1.1280     1.5320 c6         1 29N       0.248400
      3 N3           0.5350     1.2810     1.0670 n          1 29N      -0.452467
      4 C4           1.4000     0.1730     1.5320 c6         1 29N       0.248400
      5 N5           0.8340    -1.1090     1.0620 n          1 29N      -0.452467
      6 C6          -0.5570    -1.3060     1.5270 c6         1 29N       0.248400
      7 C7          -2.2670    -0.3030    -0.0280 c          1 29N       0.612767
      8 C8          -3.1340     0.9070    -0.4290 c3         1 29N      -0.159400
      9 O9          -2.3880    -1.3770    -0.6020 o          1 29N      -0.596433
     10 C10          1.3920    -1.8040    -0.0290 c          1 29N       0.612767
     11 C11          0.7780    -3.1570    -0.4380 c3         1 29N      -0.159400
     12 O12          2.3850    -1.3690    -0.5980 o          1 29N      -0.596433
     13 C13          0.8610     2.1140    -0.0200 c          1 29N       0.612767
     14 C14          2.3420     2.2610    -0.4240 c3         1 29N      -0.159400
     15 O15         -0.0100     2.7580    -0.5900 o          1 29N      -0.596433
     16 C16         -4.2690     0.6200    -1.4390 c3         1 29N      -0.076433
     17 C19          1.5980    -3.9920    -1.4490 c3         1 29N      -0.076433
     18 C25          2.6580     3.3920    -1.4300 c3         1 29N      -0.076433
     19 H1          -1.4750     1.9650     1.1760 h2         1 29N       0.077200
     20 H2          -0.8730     1.1430     2.6320 h2         1 29N       0.077200
     21 H3           2.4320     0.2890     1.1750 h2         1 29N       0.077200
     22 H4           1.4200     0.1730     2.6320 h2         1 29N       0.077200
     23 H5          -0.5670    -1.3270     2.6270 h2         1 29N       0.077200
     24 H6          -0.9730    -2.2560     1.1670 h2         1 29N       0.077200
     25 H7          -3.5180     1.3730     0.4860 hc         1 29N       0.070533
     26 H8          -2.4640     1.6860    -0.8090 hc         1 29N       0.070533
     27 H9           0.5640    -3.7270     0.4730 hc         1 29N       0.070533
     28 H10         -0.2300    -2.9650    -0.8200 hc         1 29N       0.070533
     29 H11          2.9390     2.3580     0.4900 hc         1 29N       0.070533
     30 H12          2.6810     1.2940    -0.8070 hc         1 29N       0.070533
     31 H13         -4.8290     1.5370    -1.6560 hc         1 29N       0.042589
     32 H14         -3.8620     0.2370    -2.3830 hc         1 29N       0.042589
     33 H15         -4.9680    -0.1220    -1.0360 hc         1 29N       0.042589
     34 H16          1.7290    -3.4440    -2.3910 hc         1 29N       0.042589
     35 H17          2.5890    -4.2290    -1.0440 hc         1 29N       0.042589
     36 H18          1.0840    -4.9350    -1.6720 hc         1 29N       0.042589
     37 H19          2.1220     3.2340    -2.3740 hc         1 29N       0.042589
     38 H20          2.3660     4.3670    -1.0230 hc         1 29N       0.042589
     39 H21          3.7320     3.4190    -1.6490 hc         1 29N       0.042589
@<TRIPOS>BOND
     1     1     2 1   
     2     1     6 1   
     3     1     7 1   
     4     2     3 1   
     5     2    19 1   
     6     2    20 1   
     7     3     4 1   
     8     3    13 1   
     9     4     5 1   
    10     4    21 1   
    11     4    22 1   
    12     5     6 1   
    13     5    10 1   
    14     6    23 1   
    15     6    24 1   
    16     7     8 1   
    17     7     9 2   
    18     8    16 1   
    19     8    25 1   
    20     8    26 1   
    21    10    11 1   
    22    10    12 2   
    23    11    17 1   
    24    11    27 1   
    25    11    28 1   
    26    13    14 1   
    27    13    15 2   
    28    14    18 1   
    29    14    29 1   
    30    14    30 1   
    31    16    31 1   
    32    16    32 1   
    33    16    33 1   
    34    17    34 1   
    35    17    35 1   
    36    17    36 1   
    37    18    37 1   
    38    18    38 1   
    39    18    39 1   
@<TRIPOS>SUBSTRUCTURE
     1 29N         1 TEMP              0 ****  ****    0 ROOT
