@<TRIPOS>MOLECULE
29O
   33    33     1     0     0
SMALL
No Charge or Current Charge


@<TRIPOS>ATOM
      1 C1          -0.8870    -0.9960    -0.3580 ca         1 29O       0.034333
      2 C2           0.4690    -1.3320    -0.1730 ca         1 29O      -0.218667
      3 C3           1.4480    -0.3360    -0.0220 ca         1 29O       0.034333
      4 C4           1.0570     1.0180    -0.0620 ca         1 29O      -0.218667
      5 C5          -0.2890     1.3770    -0.2460 ca         1 29O       0.034333
      6 C6          -1.2540     0.3600    -0.3890 ca         1 29O      -0.218667
      7 N1          -1.9250    -1.9560    -0.5110 ns         1 29O      -0.147667
      8 N2          -0.5960     2.7660    -0.2700 ns         1 29O      -0.147667
      9 C7          -1.7800     3.4630    -0.4710 c          1 29O       0.615100
     10 C8          -1.9190    -3.3440    -0.5740 c          1 29O       0.615100
     11 C9          -3.3190    -3.9520    -0.7390 c3         1 29O      -0.033733
     12 O1          -0.9090    -4.0370    -0.5090 o          1 29O      -0.550767
     13 O2          -2.8660     2.9360    -0.6910 o          1 29O      -0.550767
     14 C10         -1.6110     4.9870    -0.3960 c3         1 29O      -0.033733
     15 N3           2.7920    -0.7640     0.1590 ns         1 29O      -0.147667
     16 C11          3.9760    -0.0730     0.3850 c          1 29O       0.615100
     17 O3           4.0580     1.1470     0.4850 o          1 29O      -0.550767
     18 C12          5.2020    -0.9880     0.5060 c3         1 29O      -0.033733
     19 H1           0.7840    -2.3700    -0.1390 ha         1 29O       0.148667
     20 H2           1.7890     1.8110     0.0450 ha         1 29O       0.148667
     21 H3          -2.3020     0.6040    -0.5270 ha         1 29O       0.148667
     22 H4          -2.8460    -1.5460    -0.5880 hn         1 29O       0.159000
     23 H5           0.2070     3.3590    -0.1090 hn         1 29O       0.159000
     24 H6          -3.9410    -3.6540     0.1130 h1         1 29O       0.091700
     25 H7          -3.7650    -3.5750    -1.6670 h1         1 29O       0.091700
     26 H9          -1.2230     5.2550     0.5940 h1         1 29O       0.091700
     27 H10         -0.8980     5.3050    -1.1660 h1         1 29O       0.091700
     28 H12          2.9050    -1.7680     0.1120 hn         1 29O       0.159000
     29 H13          5.0500    -1.6800     1.3430 h1         1 29O       0.091700
     30 H14          5.3150    -1.5590    -0.4230 h1         1 29O       0.091700
     31 Br1         -3.3610    -5.9530    -0.8330 br         1 29O      -0.190000
     32 Br2         -3.2950     6.0350    -0.6760 br         1 29O      -0.190000
     33 Br3          6.9340    -0.0350     0.8300 br         1 29O      -0.190000
@<TRIPOS>BOND
     1     1     2 ar  
     2     1     6 ar  
     3     1     7 1   
     4     2     3 ar  
     5     2    19 1   
     6     3     4 ar  
     7     3    15 1   
     8     4     5 ar  
     9     4    20 1   
    10     5     6 ar  
    11     5     8 1   
    12     6    21 1   
    13     7    10 1   
    14     7    22 1   
    15     8     9 1   
    16     8    23 1   
    17     9    13 2   
    18     9    14 1   
    19    10    11 1   
    20    10    12 2   
    21    11    24 1   
    22    11    25 1   
    23    11    31 1   
    24    14    26 1   
    25    14    27 1   
    26    14    32 1   
    27    15    16 1   
    28    15    28 1   
    29    16    17 2   
    30    16    18 1   
    31    18    29 1   
    32    18    30 1   
    33    18    33 1   
@<TRIPOS>SUBSTRUCTURE
     1 29O         1 TEMP              0 ****  ****    0 ROOT
