@<TRIPOS>MOLECULE
29O
   33    33     1     0     0
SMALL
bcc


@<TRIPOS>ATOM
      1 C1          -0.8630    -0.9740    -0.3930 ca         1 29O       0.126933
      2 C2           0.4580    -1.3330    -0.1720 ca         1 29O      -0.236667
      3 C3           1.4180    -0.3320    -0.0090 ca         1 29O       0.126933
      4 C4           1.0640     1.0070    -0.0630 ca         1 29O      -0.236667
      5 C5          -0.2710     1.3520    -0.2870 ca         1 29O       0.126933
      6 C6          -1.2370     0.3720    -0.4550 ca         1 29O      -0.236667
      7 N1          -1.8980    -1.8960    -0.5790 ns         1 29O      -0.473767
      8 N2          -0.5420     2.7230    -0.3280 ns         1 29O      -0.473767
      9 C7          -1.7340     3.3570    -0.4620 c          1 29O       0.682100
     10 C8          -1.8700    -3.2470    -0.4690 c          1 29O       0.682100
     11 C9          -3.2570    -3.8510    -0.6160 c3         1 29O      -0.116333
     12 O1          -0.8800    -3.9080    -0.2430 o          1 29O      -0.550767
     13 O2          -2.8000     2.8080    -0.6270 o          1 29O      -0.550767
     14 C10         -1.5770     4.8650    -0.3430 c3         1 29O      -0.116333
     15 N3           2.7240    -0.7800     0.2130 ns         1 29O      -0.473767
     16 C11          3.8720    -0.0650     0.3030 c          1 29O       0.682100
     17 O3           3.9450     1.1440     0.2760 o          1 29O      -0.550767
     18 C12          5.0940    -0.9640     0.3920 c3         1 29O      -0.116333
     19 H1           0.7550    -2.3690    -0.1280 ha         1 29O       0.166667
     20 H2           1.8010     1.7840     0.0660 ha         1 29O       0.166667
     21 H3          -2.2690     0.6300    -0.6340 ha         1 29O       0.166667
     22 H4          -2.7940    -1.4810    -0.7850 hn         1 29O       0.325500
     23 H5           0.2690     3.3140    -0.2090 hn         1 29O       0.325500
     24 H6          -3.7820    -3.7820     0.3390 h1         1 29O       0.091700
     25 H7          -3.8520    -3.3310    -1.3670 h1         1 29O       0.091700
     26 H9          -1.3950     5.1300     0.7010 h1         1 29O       0.091700
     27 H10         -0.7330     5.2240    -0.9320 h1         1 29O       0.091700
     28 H12          2.8160    -1.7840     0.2700 hn         1 29O       0.325500
     29 H13          4.8830    -1.9040     0.9010 h1         1 29O       0.091700
     30 H14          5.4400    -1.1940    -0.6180 h1         1 29O       0.091700
     31 BR1         -3.1650    -5.7190    -1.1090 br         1 29O      -0.107400
     32 BR2         -3.1650     5.7970    -0.9290 br         1 29O      -0.107400
     33 BR3          6.5430    -0.0860     1.3290 br         1 29O      -0.107400
@<TRIPOS>BOND
     1     1     2 ar  
     2     1     6 ar  
     3     1     7 1   
     4     2     3 ar  
     5     2    19 1   
     6     3     4 ar  
     7     3    15 1   
     8     4     5 ar  
     9     4    20 1   
    10     5     6 ar  
    11     5     8 1   
    12     6    21 1   
    13     7    10 1   
    14     7    22 1   
    15     8     9 1   
    16     8    23 1   
    17     9    13 2   
    18     9    14 1   
    19    10    11 1   
    20    10    12 2   
    21    11    24 1   
    22    11    25 1   
    23    11    31 1   
    24    14    26 1   
    25    14    27 1   
    26    14    32 1   
    27    15    16 1   
    28    15    28 1   
    29    16    17 2   
    30    16    18 1   
    31    18    29 1   
    32    18    30 1   
    33    18    33 1   
@<TRIPOS>SUBSTRUCTURE
     1 29O         1 TEMP              0 ****  ****    0 ROOT
