@<TRIPOS>MOLECULE
29P
   51    52     1     0     0
SMALL
No Charge or Current Charge


@<TRIPOS>ATOM
      1 O4A          3.1180     4.3250     0.0750 o          1 29P      -0.771500
      2 C9A          2.2940     3.6330     0.6520 c          1 29P       0.721000
      3 O3A          1.1980     4.0440     1.0000 o          1 29P      -0.771500
      4 C8A          2.6330     2.1580     0.9090 c3         1 29P      -0.199400
      5 C7A          2.1890     1.2970    -0.2950 c3         1 29P       0.010900
      6 C3A          2.4500    -0.1840    -0.1030 cc         1 29P      -0.112300
      7 C2A          3.6900    -0.8470    -0.3610 cc         1 29P      -0.054300
      8 C5A          4.9630    -0.1770    -0.8600 c3         1 29P      -0.141100
      9 C6A          6.1310    -0.2360     0.1530 c          1 29P       0.725000
     10 O1A          6.9100    -1.1770     0.0960 o          1 29P      -0.752500
     11 O2A          6.2020     0.6310     1.0130 o          1 29P      -0.752500
     12 C1A          3.5090    -2.1870    -0.1130 cd         1 29P      -0.229300
     13 CHA          4.4720    -3.3390    -0.2570 c3         1 29P       0.010200
     14 NA           2.1940    -2.3530     0.3210 na         1 29P      -0.129000
     15 C4A          1.5410    -1.1220     0.3230 cd         1 29P      -0.183300
     16 CHB          0.0930    -0.9610     0.7290 c3         1 29P      -0.016100
     17 C1B         -0.9170    -1.3810    -0.3650 c5         1 29P       0.128900
     18 C2B         -2.3870    -1.1130     0.0320 c2         1 29P      -0.036400
     19 C5B         -3.0650    -1.8000     1.2120 c3         1 29P      -0.177200
     20 C6B         -2.9750    -3.3300     1.0860 c          1 29P       0.726000
     21 O1B         -3.8340    -3.9060     0.4340 o          1 29P      -0.755000
     22 O2B         -1.9880    -3.8900     1.5360 o          1 29P      -0.755000
     23 NB          -0.7990    -0.5510    -1.5780 ns         1 29P      -0.509900
     24 C4B         -1.9170     0.1740    -1.8340 c          1 29P       0.564200
     25 O5B         -2.0420     0.9660    -2.7550 o          1 29P      -0.610000
     26 C3B         -2.9010    -0.2000    -0.8160 ce         1 29P      -0.206400
     27 C7B         -4.3080     0.3830    -0.8200 c3         1 29P       0.012800
     28 C8B         -4.5120     1.4650     0.2660 c3         1 29P      -0.199400
     29 C9B         -5.9480     2.0060     0.2040 c          1 29P       0.717000
     30 O3B         -6.8080     1.4420     0.8620 o          1 29P      -0.772000
     31 O4B         -6.1790     2.9510    -0.5350 o          1 29P      -0.772000
     32 H2           3.7160     2.0230     0.9930 hc         1 29P       0.036200
     33 H3           2.0710     1.7790     1.7720 hc         1 29P       0.036200
     34 H4           1.1180     1.4600    -0.4640 hc         1 29P       0.039700
     35 H5           2.6760     1.6580    -1.2080 hc         1 29P       0.039700
     36 H6           5.2450    -0.7120    -1.7750 hc         1 29P       0.017200
     37 H7           4.7300     0.8740    -1.0520 hc         1 29P       0.017200
     38 H9           5.1170    -3.4230     0.6250 hc         1 29P       0.012367
     39 H10          3.9380    -4.2900    -0.3710 hc         1 29P       0.012367
     40 H11          5.1120    -3.2140    -1.1380 hc         1 29P       0.012367
     41 H12          1.7740    -3.2370     0.5870 hn         1 29P       0.315000
     42 H13         -0.0900    -1.5580     1.6300 hc         1 29P       0.062200
     43 H14         -0.1010     0.0760     1.0250 hc         1 29P       0.062200
     44 H15         -0.7610    -2.4430    -0.5990 h1         1 29P       0.074700
     45 H16         -2.5360    -1.4700     2.1130 hc         1 29P       0.040700
     46 H17         -4.1190    -1.5030     1.2080 hc         1 29P       0.040700
     47 H19          0.0300    -0.4220    -2.1430 hn         1 29P       0.324500
     48 H20         -4.5380     0.8190    -1.8000 hc         1 29P       0.039700
     49 H21         -5.0450    -0.4160    -0.6730 hc         1 29P       0.039700
     50 H22         -4.3300     0.9710     1.2280 hc         1 29P       0.033700
     51 H23         -3.7920     2.2590     0.0350 hc         1 29P       0.033700
@<TRIPOS>BOND
     1     1     2 1   
     2     2     3 1   
     3     2     4 1   
     4     4     5 1   
     5     4    32 1   
     6     4    33 1   
     7     5     6 1   
     8     5    34 1   
     9     5    35 1   
    10     6     7 1   
    11     6    15 2   
    12     7     8 1   
    13     7    12 2   
    14     8     9 1   
    15     8    36 1   
    16     8    37 1   
    17     9    10 1   
    18     9    11 1   
    19    12    13 1   
    20    12    14 1   
    21    13    38 1   
    22    13    39 1   
    23    13    40 1   
    24    14    15 1   
    25    14    41 1   
    26    15    16 1   
    27    16    17 1   
    28    16    42 1   
    29    16    43 1   
    30    17    18 1   
    31    17    23 1   
    32    17    44 1   
    33    18    19 1   
    34    18    26 2   
    35    19    20 1   
    36    19    45 1   
    37    19    46 1   
    38    20    21 1   
    39    20    22 1   
    40    23    24 1   
    41    23    47 1   
    42    24    25 2   
    43    24    26 1   
    44    26    27 1   
    45    27    28 1   
    46    27    48 1   
    47    27    49 1   
    48    28    29 1   
    49    28    50 1   
    50    28    51 1   
    51    29    30 1   
    52    29    31 1   
@<TRIPOS>SUBSTRUCTURE
     1 29P         1 TEMP              0 ****  ****    0 ROOT
