@<TRIPOS>MOLECULE
29P
   51    52     1     0     0
SMALL
abcg2


@<TRIPOS>ATOM
      1 O4A          2.0420     4.0790     0.0860 o          1 29P      -0.771500
      2 C9A          2.3810     3.5160     1.1470 c          1 29P       0.721000
      3 O3A          2.6180     4.0830     2.2360 o          1 29P      -0.771500
      4 C8A          2.5370     1.9880     1.1330 c3         1 29P      -0.199400
      5 C7A          2.1110     1.2850    -0.1510 c3         1 29P       0.010900
      6 C3A          2.3790    -0.1880    -0.1140 cc         1 29P      -0.112300
      7 C2A          3.5930    -0.8400    -0.4880 cc         1 29P      -0.054300
      8 C5A          4.8090    -0.1880    -1.0500 c3         1 29P      -0.141100
      9 C6A          5.9030     0.2380    -0.0430 c          1 29P       0.725000
     10 O1A          6.9260     0.7440    -0.5540 o          1 29P      -0.752500
     11 O2A          5.6990     0.0530     1.1690 o          1 29P      -0.752500
     12 C1A          3.4210    -2.1850    -0.2560 cd         1 29P      -0.229300
     13 CHA          4.3640    -3.3230    -0.4280 c3         1 29P       0.010200
     14 NA           2.1650    -2.3590     0.2510 na         1 29P      -0.129000
     15 C4A          1.5180    -1.1580     0.3450 cd         1 29P      -0.183300
     16 CHB          0.1040    -1.0540     0.8000 c3         1 29P      -0.016100
     17 C1B         -0.9000    -1.4800    -0.2860 c5         1 29P       0.128900
     18 C2B         -2.3320    -1.2330     0.0990 c2         1 29P      -0.036400
     19 C5B         -2.9390    -1.8670     1.2960 c3         1 29P      -0.177200
     20 C6B         -3.2120    -3.3890     1.1590 c          1 29P       0.726000
     21 O1B         -2.8970    -3.9390     0.0890 o          1 29P      -0.755000
     22 O2B         -3.7350    -3.9250     2.1550 o          1 29P      -0.755000
     23 NB          -0.7660    -0.6950    -1.4840 ns         1 29P      -0.509900
     24 C4B         -1.8880    -0.0060    -1.7860 c          1 29P       0.564200
     25 O5B         -2.0340     0.7670    -2.7250 o          1 29P      -0.610000
     26 C3B         -2.8960    -0.3790    -0.7670 ce         1 29P      -0.206400
     27 C7B         -4.2630     0.2150    -0.7690 c3         1 29P       0.012800
     28 C8B         -4.2680     1.6250    -0.1810 c3         1 29P      -0.199400
     29 C9B         -5.6340     2.3320    -0.1620 c          1 29P       0.717000
     30 O3B         -5.6620     3.4450     0.4070 o          1 29P      -0.772000
     31 O4B         -6.5960     1.7600    -0.7100 o          1 29P      -0.772000
     32 H2           3.5810     1.7330     1.3450 hc         1 29P       0.036200
     33 H3           1.9710     1.5710     1.9750 hc         1 29P       0.036200
     34 H4           1.0490     1.4670    -0.3380 hc         1 29P       0.039700
     35 H5           2.6360     1.7340    -0.9980 hc         1 29P       0.039700
     36 H6           5.2840    -0.8420    -1.7910 hc         1 29P       0.017200
     37 H7           4.5210     0.7060    -1.6150 hc         1 29P       0.017200
     38 H9           4.7580    -3.6810     0.5260 hc         1 29P       0.012367
     39 H10          3.8980    -4.1760    -0.9260 hc         1 29P       0.012367
     40 H11          5.2180    -3.0200    -1.0340 hc         1 29P       0.012367
     41 H12          1.7700    -3.2480     0.5090 hn         1 29P       0.315000
     42 H13         -0.0620    -1.6740     1.6860 hc         1 29P       0.062200
     43 H14         -0.1090    -0.0240     1.0920 hc         1 29P       0.062200
     44 H15         -0.7570    -2.5430    -0.5040 h1         1 29P       0.074700
     45 H16         -2.2860    -1.7220     2.1630 hc         1 29P       0.040700
     46 H17         -3.8790    -1.3690     1.5520 hc         1 29P       0.040700
     47 H19          0.1150    -0.5580    -1.9550 hn         1 29P       0.324500
     48 H20         -4.6440     0.2480    -1.7920 hc         1 29P       0.039700
     49 H21         -4.9490    -0.4220    -0.2080 hc         1 29P       0.039700
     50 H22         -3.8730     1.5940     0.8400 hc         1 29P       0.033700
     51 H23         -3.5670     2.2540    -0.7400 hc         1 29P       0.033700
@<TRIPOS>BOND
     1     1     2 1   
     2     2     3 1   
     3     2     4 1   
     4     4     5 1   
     5     4    32 1   
     6     4    33 1   
     7     5     6 1   
     8     5    34 1   
     9     5    35 1   
    10     6     7 1   
    11     6    15 2   
    12     7     8 1   
    13     7    12 2   
    14     8     9 1   
    15     8    36 1   
    16     8    37 1   
    17     9    10 1   
    18     9    11 1   
    19    12    13 1   
    20    12    14 1   
    21    13    38 1   
    22    13    39 1   
    23    13    40 1   
    24    14    15 1   
    25    14    41 1   
    26    15    16 1   
    27    16    17 1   
    28    16    42 1   
    29    16    43 1   
    30    17    18 1   
    31    17    23 1   
    32    17    44 1   
    33    18    19 1   
    34    18    26 2   
    35    19    20 1   
    36    19    45 1   
    37    19    46 1   
    38    20    21 1   
    39    20    22 1   
    40    23    24 1   
    41    23    47 1   
    42    24    25 2   
    43    24    26 1   
    44    26    27 1   
    45    27    28 1   
    46    27    48 1   
    47    27    49 1   
    48    28    29 1   
    49    28    50 1   
    50    28    51 1   
    51    29    30 1   
    52    29    31 1   
@<TRIPOS>SUBSTRUCTURE
     1 29P         1 TEMP              0 ****  ****    0 ROOT
