@<TRIPOS>MOLECULE
29Q
   33    36     1     0     0
SMALL
No Charge or Current Charge


@<TRIPOS>ATOM
      1 Cl          -5.0710    -0.2800     0.6330 cl         1 29Q      -0.197000
      2 C13         -3.3900    -0.1780     0.1230 ca         1 29Q       0.129000
      3 C12         -2.4030     0.2180     1.0360 ca         1 29Q      -0.108000
      4 C11         -1.0590     0.2970     0.6320 ca         1 29Q      -0.081000
      5 C14         -3.0350    -0.5020    -1.1930 ca         1 29Q      -0.108000
      6 C15         -1.6920    -0.4240    -1.6010 ca         1 29Q      -0.081000
      7 C10         -0.6820    -0.0100    -0.6990 ca         1 29Q      -0.147300
      8 C            0.7960     0.0560    -1.1450 c5         1 29Q       0.576800
      9 O            0.8860     0.4290    -2.4970 oh         1 29Q      -0.637000
     10 C5           1.6260     1.0340    -0.3200 ca         1 29Q      -0.120300
     11 C6           1.4060     2.3980    -0.0580 ca         1 29Q      -0.087000
     12 C7           2.3000     3.0720     0.8000 ca         1 29Q      -0.099000
     13 C8           3.3830     2.3820     1.3930 ca         1 29Q      -0.110000
     14 C9           3.5880     1.0130     1.1220 ca         1 29Q      -0.055000
     15 C4           2.7070     0.3790     0.2340 ca         1 29Q      -0.117900
     16 C1           2.6350    -1.0270    -0.1830 ce         1 29Q       0.628800
     17 N            1.5410    -1.2240    -0.9920 nh         1 29Q      -0.772600
     18 C3           0.8510    -2.4340    -0.5070 c5         1 29Q       0.189800
     19 C2           2.0680    -3.1290     0.1850 c5         1 29Q       0.084800
     20 N1           3.0080    -2.0200     0.5500 n2         1 29Q      -0.601900
     21 H1          -2.6780     0.4590     2.0600 ha         1 29Q       0.132500
     22 H2          -0.3120     0.5900     1.3660 ha         1 29Q       0.129000
     23 H3          -3.8000    -0.8190    -1.8980 ha         1 29Q       0.132500
     24 H4          -1.4380    -0.6960    -2.6230 ha         1 29Q       0.129000
     25 H5           0.4770     1.3150    -2.5320 ho         1 29Q       0.459000
     26 H6           0.5550     2.9210    -0.4910 ha         1 29Q       0.119000
     27 H7           2.1470     4.1260     1.0200 ha         1 29Q       0.117000
     28 H8           4.0570     2.9070     2.0660 ha         1 29Q       0.120000
     29 H9           4.4100     0.4670     1.5810 ha         1 29Q       0.137000
     30 H10          0.0660    -2.2180     0.2310 h1         1 29Q       0.053200
     31 H11          1.7560    -3.7000     1.0700 h1         1 29Q       0.065700
     32 H12          0.4250    -3.0410    -1.3180 h1         1 29Q       0.053200
     33 H13          2.5650    -3.8220    -0.5080 h1         1 29Q       0.065700
@<TRIPOS>BOND
     1     1     2 1   
     2     2     3 ar  
     3     2     5 ar  
     4     3     4 ar  
     5     3    21 1   
     6     4     7 ar  
     7     4    22 1   
     8     5     6 ar  
     9     5    23 1   
    10     6     7 ar  
    11     6    24 1   
    12     7     8 1   
    13     8     9 1   
    14     8    10 1   
    15     8    17 1   
    16     9    25 1   
    17    10    11 ar  
    18    10    15 ar  
    19    11    12 ar  
    20    11    26 1   
    21    12    13 ar  
    22    12    27 1   
    23    13    14 ar  
    24    13    28 1   
    25    14    15 ar  
    26    14    29 1   
    27    15    16 1   
    28    16    17 1   
    29    16    20 2   
    30    17    18 1   
    31    18    19 1   
    32    18    30 1   
    33    18    32 1   
    34    19    20 1   
    35    19    31 1   
    36    19    33 1   
@<TRIPOS>SUBSTRUCTURE
     1 29Q         1 TEMP              0 ****  ****    0 ROOT
