@<TRIPOS>MOLECULE
29Q
   33    36     1     0     0
SMALL
abcg2


@<TRIPOS>ATOM
      1 CL          -4.9590    -0.3170     0.7900 cl         1 29Q      -0.197000
      2 C13         -3.3200    -0.1890     0.2450 ca         1 29Q       0.129000
      3 C12         -2.3140     0.0700     1.1640 ca         1 29Q      -0.108000
      4 C11         -1.0060     0.1770     0.7190 ca         1 29Q      -0.081000
      5 C14         -3.0320    -0.3470    -1.1000 ca         1 29Q      -0.108000
      6 C15         -1.7160    -0.2410    -1.5280 ca         1 29Q      -0.081000
      7 C10         -0.6910     0.0280    -0.6290 ca         1 29Q      -0.147300
      8 C            0.7630     0.0710    -1.0860 c5         1 29Q       0.576800
      9 O            0.8720     0.2770    -2.4660 oh         1 29Q      -0.637000
     10 C5           1.6000     1.0640    -0.2860 ca         1 29Q      -0.120300
     11 C6           1.5240     2.4440    -0.2770 ca         1 29Q      -0.087000
     12 C7           2.4050     3.1410     0.5450 ca         1 29Q      -0.099000
     13 C8           3.3330     2.4710     1.3390 ca         1 29Q      -0.110000
     14 C9           3.4050     1.0840     1.3290 ca         1 29Q      -0.055000
     15 C4           2.5300     0.3990     0.5030 ca         1 29Q      -0.117900
     16 C1           2.3290    -1.0280     0.2740 ce         1 29Q       0.628800
     17 N            1.4440    -1.1600    -0.7710 nh         1 29Q      -0.772600
     18 C3           0.9380    -2.5190    -0.7290 c5         1 29Q       0.189800
     19 C2           2.0470    -3.1800     0.1290 c5         1 29Q       0.084800
     20 N1           2.7200    -2.0910     0.8480 n2         1 29Q      -0.601900
     21 H1          -2.5420     0.1910     2.2140 ha         1 29Q       0.132500
     22 H2          -0.2310     0.3810     1.4470 ha         1 29Q       0.129000
     23 H3          -3.8200    -0.5510    -1.8120 ha         1 29Q       0.132500
     24 H4          -1.5070    -0.3750    -2.5820 ha         1 29Q       0.129000
     25 H5           0.4040     1.0840    -2.7100 ho         1 29Q       0.459000
     26 H6           0.7980     2.9790    -0.8760 ha         1 29Q       0.119000
     27 H7           2.3660     4.2230     0.5710 ha         1 29Q       0.117000
     28 H8           4.0030     3.0400     1.9700 ha         1 29Q       0.120000
     29 H9           4.1230     0.5580     1.9440 ha         1 29Q       0.137000
     30 H10         -0.0420    -2.5660    -0.2420 h1         1 29Q       0.053200
     31 H11          1.6450    -3.9150     0.8270 h1         1 29Q       0.065700
     32 H12          0.8510    -2.9620    -1.7200 h1         1 29Q       0.053200
     33 H13          2.7710    -3.7010    -0.5040 h1         1 29Q       0.065700
@<TRIPOS>BOND
     1     1     2 1   
     2     2     3 ar  
     3     2     5 ar  
     4     3     4 ar  
     5     3    21 1   
     6     4     7 ar  
     7     4    22 1   
     8     5     6 ar  
     9     5    23 1   
    10     6     7 ar  
    11     6    24 1   
    12     7     8 1   
    13     8     9 1   
    14     8    10 1   
    15     8    17 1   
    16     9    25 1   
    17    10    11 ar  
    18    10    15 ar  
    19    11    12 ar  
    20    11    26 1   
    21    12    13 ar  
    22    12    27 1   
    23    13    14 ar  
    24    13    28 1   
    25    14    15 ar  
    26    14    29 1   
    27    15    16 1   
    28    16    17 1   
    29    16    20 2   
    30    17    18 1   
    31    18    19 1   
    32    18    30 1   
    33    18    32 1   
    34    19    20 1   
    35    19    31 1   
    36    19    33 1   
@<TRIPOS>SUBSTRUCTURE
     1 29Q         1 TEMP              0 ****  ****    0 ROOT
