@<TRIPOS>MOLECULE
29R
   48    49     1     0     0
SMALL
bcc


@<TRIPOS>ATOM
      1 N1           1.4360     3.2690    -0.5320 ns         1 29R      -0.522400
      2 C2           0.5740     2.2590    -0.1900 cc         1 29R       0.761800
      3 N2          -0.7250     2.5050    -0.3170 nu         1 29R      -0.791200
      4 N3           0.9860     1.0890     0.2520 nd         1 29R      -0.674100
      5 C4           2.3100     0.9900     0.3260 cd         1 29R       0.281100
      6 C5           3.2450     1.9430    -0.0010 cc         1 29R      -0.342900
      7 C6           2.8260     3.2220    -0.4770 c          1 29R       0.781100
      8 O6           3.5170     4.1670    -0.8010 o          1 29R      -0.595500
      9 N7           4.4880     1.3980     0.2270 na         1 29R       0.037900
     10 C8           4.3110     0.1730     0.6720 cc         1 29R      -0.019600
     11 N9           3.0080    -0.1110     0.7500 na         1 29R      -0.021100
     12 C11          2.4320    -1.3840     1.1700 c3         1 29R       0.035300
     13 C12          1.8700    -2.1760    -0.0000 c3         1 29R      -0.101400
     14 C13          1.3520    -3.5340     0.4570 c3         1 29R      -0.050400
     15 C14          0.7450    -4.3280    -0.6890 c3         1 29R      -0.209400
     16 C15          0.2160    -5.7270    -0.3260 c          1 29R       0.931600
     17 O16          0.2130    -6.0550     0.8760 o          1 29R      -0.833800
     18 O17         -0.1800    -6.4250    -1.2840 o          1 29R      -0.833800
     19 C31         -1.7530     1.5040    -0.0930 c3         1 29R       0.211800
     20 C32         -3.1260     2.1540    -0.1510 c3         1 29R      -0.101400
     21 C33         -4.2530     1.1350    -0.0510 c3         1 29R      -0.051400
     22 C34         -5.6220     1.7940    -0.0940 c3         1 29R      -0.207400
     23 C35         -6.8320     0.8470    -0.0160 c          1 29R       0.928600
     24 O36         -6.6110    -0.3710     0.1330 o          1 29R      -0.834800
     25 O37         -7.9540     1.3890    -0.1050 o          1 29R      -0.834800
     26 CM7          5.7710     2.0500     0.0230 c3         1 29R       0.023600
     27 HN1          1.0450     4.1430    -0.8660 hn         1 29R       0.342500
     28 HN2         -1.0110     3.3770    -0.7360 hn         1 29R       0.452800
     29 H8           5.1030    -0.5070     0.9400 h5         1 29R       0.234000
     30 H11          3.2230    -1.9390     1.6740 h1         1 29R       0.081700
     31 H11A         1.6590    -1.1700     1.9080 h1         1 29R       0.081700
     32 H12          1.0630    -1.6070    -0.4700 hc         1 29R       0.050200
     33 H12A         2.6500    -2.3070    -0.7550 hc         1 29R       0.050200
     34 H13          2.1720    -4.1000     0.9080 hc         1 29R       0.047200
     35 H13A         0.6080    -3.3950     1.2450 hc         1 29R       0.047200
     36 H14         -0.0810    -3.7580    -1.1300 hc         1 29R       0.022200
     37 H14A         1.4790    -4.4330    -1.4960 hc         1 29R       0.022200
     38 H31         -1.6750     0.7140    -0.8460 h1         1 29R       0.078200
     39 H31A        -1.5950     1.0380     0.8800 h1         1 29R       0.078200
     40 H32         -3.2130     2.8880     0.6550 hc         1 29R       0.032700
     41 H32A        -3.2230     2.7090    -1.0910 hc         1 29R       0.032700
     42 H33         -4.1600     0.4140    -0.8680 hc         1 29R       0.054200
     43 H33A        -4.1460     0.5600     0.8740 hc         1 29R       0.054200
     44 H34         -5.7060     2.5170     0.7270 hc         1 29R       0.013700
     45 H34A        -5.7120     2.3950    -1.0060 hc         1 29R       0.013700
     46 HM7          5.8400     2.9290     0.6580 h1         1 29R       0.081700
     47 HM7A         6.5590     1.3520     0.2840 h1         1 29R       0.081700
     48 HM7B         5.8730     2.3390    -1.0180 h1         1 29R       0.081700
@<TRIPOS>BOND
     1     1     2 1   
     2     1     7 1   
     3     1    27 1   
     4     2     3 1   
     5     2     4 2   
     6     3    19 1   
     7     3    28 1   
     8     4     5 1   
     9     5     6 2   
    10     5    11 1   
    11     6     7 1   
    12     6     9 1   
    13     7     8 2   
    14     9    10 2   
    15     9    26 1   
    16    10    11 1   
    17    10    29 1   
    18    11    12 1   
    19    12    13 1   
    20    12    30 1   
    21    12    31 1   
    22    13    14 1   
    23    13    32 1   
    24    13    33 1   
    25    14    15 1   
    26    14    34 1   
    27    14    35 1   
    28    15    16 1   
    29    15    36 1   
    30    15    37 1   
    31    16    17 1   
    32    16    18 1   
    33    19    20 1   
    34    19    38 1   
    35    19    39 1   
    36    20    21 1   
    37    20    40 1   
    38    20    41 1   
    39    21    22 1   
    40    21    42 1   
    41    21    43 1   
    42    22    23 1   
    43    22    44 1   
    44    22    45 1   
    45    23    24 1   
    46    23    25 1   
    47    26    46 1   
    48    26    47 1   
    49    26    48 1   
@<TRIPOS>SUBSTRUCTURE
     1 29R         1 TEMP              0 ****  ****    0 ROOT
