@<TRIPOS>MOLECULE
29R
   48    49     1     0     0
SMALL
No Charge or Current Charge


@<TRIPOS>ATOM
      1 N1           1.3660     3.3360    -0.4430 ns         1 29R      -0.455400
      2 C2           0.5140     2.3340    -0.1310 cc         1 29R       0.761800
      3 N2          -0.8100     2.6140    -0.2170 nu         1 29R      -0.846400
      4 N3           0.8620     1.1160     0.2490 nd         1 29R      -0.674100
      5 C4           2.2330     0.9170     0.3100 cd         1 29R       0.230400
      6 C5           3.1340     1.9020     0.0010 cc         1 29R      -0.393600
      7 C6           2.7070     3.2280    -0.4110 c          1 29R       0.638600
      8 O6           3.4490     4.1500    -0.6990 o          1 29R      -0.520000
      9 N7           4.4130     1.3540     0.1690 na         1 29R       0.059300
     10 C8           4.2740     0.0340     0.5790 cc         1 29R      -0.052300
     11 N9           2.9290    -0.2140     0.6590 na         1 29R       0.051000
     12 C11          2.3160    -1.4940     1.0450 c3         1 29R       0.064600
     13 C12          2.1380    -2.4590    -0.1480 c3         1 29R      -0.101400
     14 C13          1.5030    -3.8080     0.2580 c3         1 29R      -0.050400
     15 C14          1.3270    -4.7770    -0.9360 c3         1 29R      -0.209400
     16 C15          0.7000    -6.0990    -0.4590 c          1 29R       0.721000
     17 O16         -0.5190    -6.1830    -0.4370 o          1 29R      -0.728500
     18 O17          1.4480    -6.9850    -0.0750 o          1 29R      -0.728500
     19 C31         -1.9200     1.6900     0.0720 c3         1 29R       0.211800
     20 C32         -3.2720     2.4000    -0.1340 c3         1 29R      -0.101400
     21 C33         -4.4840     1.4850     0.1560 c3         1 29R      -0.051400
     22 C34         -5.8450     2.1960    -0.0490 c3         1 29R      -0.207400
     23 C35         -7.0010     1.2270     0.2590 c          1 29R       0.718000
     24 O36         -7.4050     1.1600     1.4100 o          1 29R      -0.729500
     25 O37         -7.4250     0.5300    -0.6500 o          1 29R      -0.729500
     26 CM7          5.6890     2.0490    -0.0520 c3         1 29R       0.052900
     27 HN1          1.0030     4.2310    -0.7210 hn         1 29R       0.342500
     28 HN2         -1.0360     3.5580    -0.5130 hn         1 29R       0.508000
     29 H8           5.0750    -0.6660     0.7890 h5         1 29R       0.216000
     30 H11          2.9490    -1.9660     1.8080 h1         1 29R       0.081700
     31 H11A         1.3390    -1.2930     1.5030 h1         1 29R       0.081700
     32 H12          1.5110    -1.9760    -0.9070 hc         1 29R       0.050200
     33 H12A         3.1160    -2.6440    -0.6090 hc         1 29R       0.050200
     34 H13          2.1290    -4.2860     1.0220 hc         1 29R       0.047200
     35 H13A         0.5250    -3.6210     0.7190 hc         1 29R       0.047200
     36 H14          0.6570    -4.2690    -1.6410 hc         1 29R       0.022200
     37 H14A         2.3340    -4.9540    -1.3330 hc         1 29R       0.022200
     38 H31         -1.8650     0.8140    -0.5900 h1         1 29R       0.078200
     39 H31A        -1.8530     1.3300     1.1080 h1         1 29R       0.078200
     40 H32         -3.3220     3.2790     0.5220 hc         1 29R       0.032700
     41 H32A        -3.3360     2.7630    -1.1680 hc         1 29R       0.032700
     42 H33         -4.4350     0.6040    -0.4980 hc         1 29R       0.054200
     43 H33A        -4.4200     1.1180     1.1880 hc         1 29R       0.054200
     44 H34         -5.8520     3.0380     0.6550 hc         1 29R       0.013700
     45 H34A        -5.8690     2.5010    -1.1020 hc         1 29R       0.013700
     46 HM7          5.7520     2.9180     0.6130 h1         1 29R       0.081700
     47 HM7A         6.5260     1.3720     0.1560 h1         1 29R       0.081700
     48 HM7B         5.7470     2.3840    -1.0940 h1         1 29R       0.081700
@<TRIPOS>BOND
     1     1     2 1   
     2     1     7 1   
     3     1    27 1   
     4     2     3 1   
     5     2     4 2   
     6     3    19 1   
     7     3    28 1   
     8     4     5 1   
     9     5     6 2   
    10     5    11 1   
    11     6     7 1   
    12     6     9 1   
    13     7     8 2   
    14     9    10 2   
    15     9    26 1   
    16    10    11 1   
    17    10    29 1   
    18    11    12 1   
    19    12    13 1   
    20    12    30 1   
    21    12    31 1   
    22    13    14 1   
    23    13    32 1   
    24    13    33 1   
    25    14    15 1   
    26    14    34 1   
    27    14    35 1   
    28    15    16 1   
    29    15    36 1   
    30    15    37 1   
    31    16    17 1   
    32    16    18 1   
    33    19    20 1   
    34    19    38 1   
    35    19    39 1   
    36    20    21 1   
    37    20    40 1   
    38    20    41 1   
    39    21    22 1   
    40    21    42 1   
    41    21    43 1   
    42    22    23 1   
    43    22    44 1   
    44    22    45 1   
    45    23    24 1   
    46    23    25 1   
    47    26    46 1   
    48    26    47 1   
    49    26    48 1   
@<TRIPOS>SUBSTRUCTURE
     1 29R         1 TEMP              0 ****  ****    0 ROOT
