@<TRIPOS>MOLECULE
29S
   69    73     1     0     0
SMALL
abcg2


@<TRIPOS>ATOM
      1 CAE          5.4490     1.0620    -1.2280 c3         1 29S       0.178800
      2 CAD          5.6500     0.2050    -2.4730 c3         1 29S      -0.072400
      3 CAC          7.0920    -0.2420    -2.7030 c3         1 29S      -0.070400
      4 CAB          7.5110    -1.4910    -1.9310 c3         1 29S      -0.070400
      5 CAA          6.9490    -1.6020    -0.5110 c3         1 29S      -0.072400
      6 CAG          6.8040    -0.2990     0.2720 c3         1 29S       0.178800
      7 NAF          5.5290     0.3680     0.0430 n3         1 29S      -0.719600
      8 CAH          5.1760     1.2540     1.1380 c3         1 29S       0.174800
      9 CAI          3.6930     1.5410     1.2400 c3         1 29S       0.164600
     10 OAJ          3.0160     0.3180     1.4700 os         1 29S      -0.326100
     11 CAK          1.6780     0.3330     1.6110 ca         1 29S       0.156100
     12 CAL          1.0630    -0.9080     1.8050 ca         1 29S      -0.179000
     13 CAM         -0.3070    -0.9890     1.9630 ca         1 29S      -0.050500
     14 CAP          0.8930     1.4820     1.5790 ca         1 29S      -0.179000
     15 CAO         -0.4850     1.3780     1.7340 ca         1 29S      -0.050500
     16 CAN         -1.1070     0.1540     1.9280 ca         1 29S      -0.164300
     17 CAQ         -2.6040     0.0580     2.0570 c3         1 29S       0.133900
     18 NAR         -3.2290    -0.5180     0.8810 na         1 29S      -0.080700
     19 CAS         -3.5370    -1.8490     0.7390 ca         1 29S      -0.070200
     20 CBD         -3.6170    -2.8730     1.6780 ca         1 29S      -0.089000
     21 CBE         -3.9790    -4.1340     1.2410 ca         1 29S      -0.179000
     22 CBF         -4.2610    -4.3850    -0.1130 ca         1 29S       0.103100
     23 OBI         -4.6200    -5.6210    -0.5430 oh         1 29S      -0.541100
     24 CBG         -4.1790    -3.3700    -1.0500 ca         1 29S      -0.101000
     25 CAT         -3.8060    -2.0910    -0.6230 ca         1 29S      -0.059800
     26 CAU         -3.6250    -0.8540    -1.3150 cc         1 29S      -0.125400
     27 CBH         -3.8500    -0.6320    -2.7720 c3         1 29S      -0.017900
     28 CAV         -3.2640     0.0710    -0.3670 cd         1 29S       0.011700
     29 CAW         -2.9540     1.4920    -0.5510 ca         1 29S      -0.074800
     30 CAX         -1.9240     1.8870    -1.4050 ca         1 29S      -0.052500
     31 CAY         -1.6040     3.2210    -1.5800 ca         1 29S      -0.182500
     32 CAZ         -2.3110     4.2020    -0.8880 ca         1 29S       0.142100
     33 OBC         -1.9610     5.4880    -1.0830 oh         1 29S      -0.533100
     34 CBA         -3.3450     3.8260    -0.0350 ca         1 29S      -0.182500
     35 CBB         -3.6600     2.4860     0.1240 ca         1 29S      -0.052500
     36 H1           6.1760     1.8960    -1.2670 h1         1 29S       0.024700
     37 H2           4.4620     1.5230    -1.3010 h1         1 29S       0.024700
     38 H3           4.9720    -0.6540    -2.4510 hc         1 29S       0.047200
     39 H4           5.3340     0.8170    -3.3210 hc         1 29S       0.047200
     40 H5           7.2520    -0.4250    -3.7690 hc         1 29S       0.034950
     41 H6           7.7540     0.5920    -2.4490 hc         1 29S       0.034950
     42 H7           7.2030    -2.3810    -2.4870 hc         1 29S       0.034950
     43 H8           8.6030    -1.5270    -1.8960 hc         1 29S       0.034950
     44 H9           5.9650    -2.0770    -0.5300 hc         1 29S       0.047200
     45 H10          7.5920    -2.2780     0.0570 hc         1 29S       0.047200
     46 H11          6.8480    -0.5470     1.3340 h1         1 29S       0.024700
     47 H12          7.6620     0.3700     0.0850 h1         1 29S       0.024700
     48 H14          5.4950     0.7970     2.0770 h1         1 29S       0.040200
     49 H15          5.6920     2.2270     1.0810 h1         1 29S       0.040200
     50 H16          3.5300     2.2390     2.0700 h1         1 29S       0.034700
     51 H17          3.3080     2.0230     0.3350 h1         1 29S       0.034700
     52 H18          1.6720    -1.8030     1.8360 ha         1 29S       0.123500
     53 H19         -0.7580    -1.9620     2.1190 ha         1 29S       0.115000
     54 H20          1.3280     2.4610     1.4310 ha         1 29S       0.123500
     55 H21         -1.0820     2.2820     1.6970 ha         1 29S       0.115000
     56 H22         -2.8840    -0.5590     2.9110 h1         1 29S       0.060200
     57 H23         -3.0290     1.0430     2.2500 h1         1 29S       0.060200
     58 H24         -3.4100    -2.7110     2.7280 ha         1 29S       0.112000
     59 H25         -4.0450    -4.9420     1.9610 ha         1 29S       0.108000
     60 H26         -4.6260    -6.2390     0.1960 ho         1 29S       0.458000
     61 H27         -4.3930    -3.5710    -2.0930 ha         1 29S       0.130000
     62 H28         -4.8430    -0.9710    -3.0760 hc         1 29S       0.038700
     63 H29         -3.7660     0.4210    -3.0390 hc         1 29S       0.038700
     64 H30         -3.1280    -1.1820    -3.3800 hc         1 29S       0.038700
     65 H31         -1.3490     1.1350    -1.9300 ha         1 29S       0.122500
     66 H32         -0.7950     3.5050    -2.2420 ha         1 29S       0.122000
     67 H33         -2.5080     6.0710    -0.5450 ho         1 29S       0.465000
     68 H34         -3.9120     4.5770     0.5030 ha         1 29S       0.122000
     69 H35         -4.4800     2.2200     0.7800 ha         1 29S       0.122500
@<TRIPOS>BOND
     1     1     2 1   
     2     1     7 1   
     3     1    36 1   
     4     1    37 1   
     5     2     3 1   
     6     2    38 1   
     7     2    39 1   
     8     3     4 1   
     9     3    40 1   
    10     3    41 1   
    11     4     5 1   
    12     4    42 1   
    13     4    43 1   
    14     5     6 1   
    15     5    44 1   
    16     5    45 1   
    17     6     7 1   
    18     6    46 1   
    19     6    47 1   
    20     7     8 1   
    21     8     9 1   
    22     8    48 1   
    23     8    49 1   
    24     9    10 1   
    25     9    50 1   
    26     9    51 1   
    27    10    11 1   
    28    11    12 ar  
    29    11    14 ar  
    30    12    13 ar  
    31    12    52 1   
    32    13    16 ar  
    33    13    53 1   
    34    14    15 ar  
    35    14    54 1   
    36    15    16 ar  
    37    15    55 1   
    38    16    17 1   
    39    17    18 1   
    40    17    56 1   
    41    17    57 1   
    42    18    19 1   
    43    18    28 1   
    44    19    20 ar  
    45    19    25 ar  
    46    20    21 ar  
    47    20    58 1   
    48    21    22 ar  
    49    21    59 1   
    50    22    23 1   
    51    22    24 ar  
    52    23    60 1   
    53    24    25 ar  
    54    24    61 1   
    55    25    26 1   
    56    26    27 1   
    57    26    28 2   
    58    27    62 1   
    59    27    63 1   
    60    27    64 1   
    61    28    29 1   
    62    29    30 ar  
    63    29    35 ar  
    64    30    31 ar  
    65    30    65 1   
    66    31    32 ar  
    67    31    66 1   
    68    32    33 1   
    69    32    34 ar  
    70    33    67 1   
    71    34    35 ar  
    72    34    68 1   
    73    35    69 1   
@<TRIPOS>SUBSTRUCTURE
     1 29S         1 TEMP              0 ****  ****    0 ROOT
