@<TRIPOS>MOLECULE
29S
   69    73     1     0     0
SMALL
No Charge or Current Charge


@<TRIPOS>ATOM
      1 CAE          4.5500     1.5870    -0.7410 c3         1 29S       0.178800
      2 CAD          4.5280     1.1580    -2.2270 c3         1 29S      -0.072400
      3 CAC          5.8870     1.3190    -2.9440 c3         1 29S      -0.070400
      4 CAB          6.8880     0.1630    -2.7280 c3         1 29S      -0.070400
      5 CAA          6.8280    -0.5440    -1.3550 c3         1 29S      -0.072400
      6 CAG          6.6630     0.3780    -0.1280 c3         1 29S       0.178800
      7 NAF          5.2510     0.6870     0.2190 n3         1 29S      -0.719600
      8 CAH          5.1280     1.1470     1.6390 c3         1 29S       0.174800
      9 CAI          3.6880     1.3510     2.1870 c3         1 29S       0.164600
     10 OAJ          2.9380     0.1340     2.0020 os         1 29S      -0.326100
     11 CAK          1.5660     0.0970     2.1180 ca         1 29S       0.156100
     12 CAL          0.9040    -1.0640     1.6910 ca         1 29S      -0.179000
     13 CAM         -0.4980    -1.1300     1.7110 ca         1 29S      -0.050500
     14 CAP          0.8150     1.1850     2.6120 ca         1 29S      -0.179000
     15 CAO         -0.5880     1.1180     2.6350 ca         1 29S      -0.050500
     16 CAN         -1.2540    -0.0280     2.1580 ca         1 29S      -0.164300
     17 CAQ         -2.7800    -0.0470     2.0770 c3         1 29S       0.133900
     18 NAR         -3.3150    -0.5590     0.7890 na         1 29S      -0.080700
     19 CAS         -4.1940    -1.6310     0.7200 ca         1 29S      -0.070200
     20 CBD         -5.0320    -2.1500     1.7240 ca         1 29S      -0.089000
     21 CBE         -5.8390    -3.2660     1.4150 ca         1 29S      -0.179000
     22 CBF         -5.8000    -3.8360     0.1240 ca         1 29S       0.103100
     23 OBI         -6.5810    -4.9150    -0.1680 oh         1 29S      -0.541100
     24 CBG         -4.9620    -3.2900    -0.8670 ca         1 29S      -0.101000
     25 CAT         -4.1730    -2.1790    -0.5310 ca         1 29S      -0.059800
     26 CAU         -3.2640    -1.4180    -1.3410 cc         1 29S      -0.125400
     27 CBH         -3.0150    -1.6660    -2.8090 c3         1 29S      -0.017900
     28 CAV         -2.7840    -0.3830    -0.5260 cd         1 29S       0.011700
     29 CAW         -1.7350     0.6080    -0.8800 ca         1 29S      -0.074800
     30 CAX         -0.6980     0.2950    -1.7880 ca         1 29S      -0.052500
     31 CAY          0.3090     1.2330    -2.0810 ca         1 29S      -0.182500
     32 CAZ          0.2910     2.4970    -1.4800 ca         1 29S       0.142100
     33 OBC          1.2700     3.3990    -1.7710 oh         1 29S      -0.533100
     34 CBA         -0.7360     2.8290    -0.5860 ca         1 29S      -0.182500
     35 CBB         -1.7400     1.8910    -0.2880 ca         1 29S      -0.052500
     36 H1           4.9750     2.5980    -0.6780 h1         1 29S       0.024700
     37 H2           3.4970     1.6730    -0.4430 h1         1 29S       0.024700
     38 H3           4.1560     0.1310    -2.3230 hc         1 29S       0.047200
     39 H4           3.8000     1.7970    -2.7410 hc         1 29S       0.047200
     40 H5           5.7110     1.4230    -4.0220 hc         1 29S       0.034950
     41 H6           6.3480     2.2610    -2.6220 hc         1 29S       0.034950
     42 H7           6.7270    -0.5930    -3.5060 hc         1 29S       0.034950
     43 H8           7.9020     0.5520    -2.8870 hc         1 29S       0.034950
     44 H9           6.0180    -1.2840    -1.3560 hc         1 29S       0.047200
     45 H10          7.7550    -1.1170    -1.2340 hc         1 29S       0.047200
     46 H11          7.1230    -0.1520     0.7170 h1         1 29S       0.024700
     47 H12          7.2420     1.3000    -0.2730 h1         1 29S       0.024700
     48 H14          5.6210     0.4220     2.3000 h1         1 29S       0.040200
     49 H15          5.6680     2.0960     1.7630 h1         1 29S       0.040200
     50 H16          3.7340     1.6180     3.2510 h1         1 29S       0.034700
     51 H17          3.2170     2.1840     1.6500 h1         1 29S       0.034700
     52 H18          1.4800    -1.9040     1.3150 ha         1 29S       0.123500
     53 H19         -0.9970    -2.0260     1.3460 ha         1 29S       0.115000
     54 H20          1.2990     2.0910     2.9640 ha         1 29S       0.123500
     55 H21         -1.1580     1.9740     2.9900 ha         1 29S       0.115000
     56 H22         -3.1480    -0.6720     2.8980 h1         1 29S       0.060200
     57 H23         -3.1780     0.9620     2.2370 h1         1 29S       0.060200
     58 H24         -5.0710    -1.7090     2.7170 ha         1 29S       0.112000
     59 H25         -6.4900    -3.6810     2.1810 ha         1 29S       0.108000
     60 H26         -7.0940    -5.1540     0.6340 ho         1 29S       0.458000
     61 H27         -4.9340    -3.7200    -1.8640 ha         1 29S       0.130000
     62 H28         -3.8990    -2.0950    -3.2930 hc         1 29S       0.038700
     63 H29         -2.7820    -0.7340    -3.3370 hc         1 29S       0.038700
     64 H30         -2.1830    -2.3650    -2.9530 hc         1 29S       0.038700
     65 H31         -0.6310    -0.6920    -2.2330 ha         1 29S       0.122500
     66 H32          1.1100     0.9710    -2.7680 ha         1 29S       0.122000
     67 H33          1.0800     4.2280    -1.2850 ho         1 29S       0.465000
     68 H34         -0.7640     3.8100    -0.1170 ha         1 29S       0.122000
     69 H35         -2.5360     2.1730     0.3950 ha         1 29S       0.122500
@<TRIPOS>BOND
     1     1     2 1   
     2     1     7 1   
     3     1    36 1   
     4     1    37 1   
     5     2     3 1   
     6     2    38 1   
     7     2    39 1   
     8     3     4 1   
     9     3    40 1   
    10     3    41 1   
    11     4     5 1   
    12     4    42 1   
    13     4    43 1   
    14     5     6 1   
    15     5    44 1   
    16     5    45 1   
    17     6     7 1   
    18     6    46 1   
    19     6    47 1   
    20     7     8 1   
    21     8     9 1   
    22     8    48 1   
    23     8    49 1   
    24     9    10 1   
    25     9    50 1   
    26     9    51 1   
    27    10    11 1   
    28    11    12 ar  
    29    11    14 ar  
    30    12    13 ar  
    31    12    52 1   
    32    13    16 ar  
    33    13    53 1   
    34    14    15 ar  
    35    14    54 1   
    36    15    16 ar  
    37    15    55 1   
    38    16    17 1   
    39    17    18 1   
    40    17    56 1   
    41    17    57 1   
    42    18    19 1   
    43    18    28 1   
    44    19    20 ar  
    45    19    25 ar  
    46    20    21 ar  
    47    20    58 1   
    48    21    22 ar  
    49    21    59 1   
    50    22    23 1   
    51    22    24 ar  
    52    23    60 1   
    53    24    25 ar  
    54    24    61 1   
    55    25    26 1   
    56    26    27 1   
    57    26    28 2   
    58    27    62 1   
    59    27    63 1   
    60    27    64 1   
    61    28    29 1   
    62    29    30 ar  
    63    29    35 ar  
    64    30    31 ar  
    65    30    65 1   
    66    31    32 ar  
    67    31    66 1   
    68    32    33 1   
    69    32    34 ar  
    70    33    67 1   
    71    34    35 ar  
    72    34    68 1   
    73    35    69 1   
@<TRIPOS>SUBSTRUCTURE
     1 29S         1 TEMP              0 ****  ****    0 ROOT
