@<TRIPOS>MOLECULE
29T
   45    48     1     0     0
SMALL
abcg2


@<TRIPOS>ATOM
      1 C10        496.0390   -25.3920    25.7900 cc         1 29T      -0.169000
      2 C11        494.6760   -24.4730    27.3810 cd         1 29T      -0.190100
      3 C14        495.6890   -25.4030    27.1650 cc         1 29T      -0.037700
      4 C16        496.2550   -26.2290    28.1620 cg         1 29T       0.312700
      5 C00        494.4240   -24.8860    19.6140 ca         1 29T      -0.186000
      6 C01        495.4070   -24.2480    18.8590 ca         1 29T      -0.069000
      7 C02        496.5260   -23.7000    19.4700 ca         1 29T      -0.133000
      8 C03        496.6650   -23.7900    20.8530 ca         1 29T      -0.071000
      9 C04        495.6940   -24.4240    21.6040 ca         1 29T       0.055100
     10 C05        494.5580   -24.9820    20.9970 ca         1 29T       0.127100
     11 C0C        495.0700   -23.9830    23.8570 cd         1 29T       0.194100
     12 C0V        495.2270   -24.4470    25.1900 cd         1 29T      -0.146000
     13 N0W        494.3990   -23.8920    26.1810 na         1 29T       0.158100
     14 C0X        493.4640   -22.9160    25.8900 cd         1 29T      -0.163000
     15 C0Y        493.3460   -22.4850    24.6120 cc         1 29T      -0.091000
     16 C0Z        494.1560   -23.0150    23.5670 cc         1 29T      -0.217000
     17 N19        496.7200   -26.9080    28.9710 n1         1 29T      -0.455000
     18 O0B        493.6680   -25.5770    21.8250 os         1 29T      -0.349100
     19 C0D        492.4580   -26.1040    21.2820 c3         1 29T       0.138600
     20 C0E        491.5720   -26.4800    22.4520 c3         1 29T       0.111000
     21 N0H        492.1900   -27.4760    23.3330 n          1 29T      -0.313000
     22 C0K        492.1390   -28.8070    22.9570 c          1 29T       0.614000
     23 N0M        492.7700   -29.6710    23.8210 ns         1 29T      -0.466500
     24 C0N        493.4550   -29.3550    24.9950 c          1 29T       0.587200
     25 C0O        493.4570   -27.9480    25.3020 cc         1 29T      -0.371200
     26 C0P        492.8400   -27.0840    24.4720 cd         1 29T       0.016600
     27 O0Q        491.5770   -29.1870    21.9410 o          1 29T      -0.570000
     28 O0S        493.9830   -30.2440    25.6550 o          1 29T      -0.524000
     29 H1         496.7770   -26.0060    25.3060 ha         1 29T       0.230000
     30 H2         494.1550   -24.1950    28.2800 h4         1 29T       0.233000
     31 H3         493.5640   -25.3140    19.1190 ha         1 29T       0.123000
     32 H4         495.2880   -24.1880    17.7850 ha         1 29T       0.120000
     33 H5         497.2880   -23.2050    18.8820 ha         1 29T       0.125000
     34 H6         497.5260   -23.3770    21.3610 ha         1 29T       0.135000
     35 H7         492.8750   -22.5580    26.7200 h4         1 29T       0.147000
     36 H8         492.6160   -21.7220    24.3860 ha         1 29T       0.129000
     37 H9         494.0290   -22.6630    22.5530 ha         1 29T       0.134000
     38 H10        491.9450   -25.3470    20.6840 h1         1 29T       0.058700
     39 H11        492.6750   -26.9690    20.6540 h1         1 29T       0.058700
     40 H12        491.3600   -25.6020    23.0570 h1         1 29T       0.077200
     41 H13        490.6350   -26.8810    22.0740 h1         1 29T       0.077200
     42 H14        492.7400   -30.6480    23.5570 hn         1 29T       0.342500
     43 H15        493.9600   -27.6020    26.1900 ha         1 29T       0.231000
     44 H16        492.8200   -26.0210    24.6620 h4         1 29T       0.210000
     45 O0A        495.9060   -24.5880    22.9650 os         1 29T      -0.226200
@<TRIPOS>BOND
     1     1     3 1   
     2     1    12 2   
     3     1    29 1   
     4     2     3 2   
     5     2    13 1   
     6     2    30 1   
     7     3     4 1   
     8     4    17 3   
     9     5     6 ar  
    10     5    10 ar  
    11     5    31 1   
    12     6     7 ar  
    13     6    32 1   
    14     7     8 ar  
    15     7    33 1   
    16     8     9 ar  
    17     8    34 1   
    18     9    10 ar  
    19     9    45 1   
    20    10    18 1   
    21    11    12 1   
    22    11    16 2   
    23    11    45 1   
    24    12    13 1   
    25    13    14 1   
    26    14    15 2   
    27    14    35 1   
    28    15    16 1   
    29    15    36 1   
    30    16    37 1   
    31    18    19 1   
    32    19    20 1   
    33    19    38 1   
    34    19    39 1   
    35    20    21 1   
    36    20    40 1   
    37    20    41 1   
    38    21    22 1   
    39    21    26 1   
    40    22    23 1   
    41    22    27 2   
    42    23    24 1   
    43    23    42 1   
    44    24    25 1   
    45    24    28 2   
    46    25    26 2   
    47    25    43 1   
    48    26    44 1   
@<TRIPOS>SUBSTRUCTURE
     1 29T         1 TEMP              0 ****  ****    0 ROOT
