@<TRIPOS>MOLECULE
29T
   45    48     1     0     0
SMALL
No Charge or Current Charge


@<TRIPOS>ATOM
      1 C10        495.9270   -24.9730    25.5700 cc         1 29T      -0.169000
      2 C11        494.1720   -24.7570    27.0450 cd         1 29T      -0.190100
      3 C14        495.3810   -25.3940    26.8240 cc         1 29T      -0.037700
      4 C16        496.0170   -26.3400    27.6790 cg         1 29T       0.312700
      5 C00        494.7620   -25.1310    19.7910 ca         1 29T      -0.186000
      6 C01        495.6720   -24.6100    18.8560 ca         1 29T      -0.069000
      7 C02        496.7120   -23.7690    19.2780 ca         1 29T      -0.133000
      8 C03        496.8400   -23.4410    20.6380 ca         1 29T      -0.071000
      9 C04        495.9310   -23.9460    21.5850 ca         1 29T       0.055100
     10 C05        494.8820   -24.8110    21.1640 ca         1 29T       0.127100
     11 C0C        495.0900   -23.3890    23.7870 cd         1 29T       0.194100
     12 C0V        495.0460   -24.0820    25.0230 cd         1 29T      -0.146000
     13 N0W        494.0180   -23.9580    25.9200 na         1 29T       0.158100
     14 C0X        492.9110   -23.1350    25.6880 cd         1 29T      -0.163000
     15 C0Y        492.9520   -22.4320    24.4820 cc         1 29T      -0.091000
     16 C0Z        494.0340   -22.5450    23.5250 cc         1 29T      -0.217000
     17 N19        496.5310   -27.1360    28.3610 n1         1 29T      -0.455000
     18 O0B        494.0050   -25.3440    22.0930 os         1 29T      -0.349100
     19 C0D        492.7180   -25.8760    21.7220 c3         1 29T       0.138600
     20 C0E        491.9530   -26.2430    23.0110 c3         1 29T       0.111000
     21 N0H        492.4170   -27.5050    23.6460 n          1 29T      -0.313000
     22 C0K        491.6750   -28.6910    23.4500 c          1 29T       0.614000
     23 N0M        492.1440   -29.8030    24.0790 ns         1 29T      -0.466500
     24 C0N        493.2420   -29.9200    24.8680 c          1 29T       0.587200
     25 C0O        493.9810   -28.6710    25.0260 cc         1 29T      -0.371200
     26 C0P        493.5700   -27.5060    24.4230 cd         1 29T       0.016600
     27 O0Q        490.6700   -28.7490    22.7620 o          1 29T      -0.570000
     28 O0S        493.5640   -30.9760    25.3830 o          1 29T      -0.524000
     29 H1         496.8650   -25.3180    25.1380 ha         1 29T       0.230000
     30 H2         493.4590   -24.8070    27.8600 h4         1 29T       0.233000
     31 H3         493.9790   -25.7920    19.4330 ha         1 29T       0.123000
     32 H4         495.5740   -24.8640    17.8020 ha         1 29T       0.120000
     33 H5         497.4170   -23.3700    18.5530 ha         1 29T       0.125000
     34 H6         497.6440   -22.7840    20.9610 ha         1 29T       0.135000
     35 H7         492.1250   -23.0890    26.4320 h4         1 29T       0.147000
     36 H8         492.1320   -21.7640    24.2330 ha         1 29T       0.129000
     37 H9         493.9930   -21.9750    22.6040 ha         1 29T       0.134000
     38 H10        492.1430   -25.1190    21.1730 h1         1 29T       0.058700
     39 H11        492.8160   -26.7680    21.0910 h1         1 29T       0.058700
     40 H12        492.0560   -25.4200    23.7310 h1         1 29T       0.077200
     41 H13        490.8850   -26.3150    22.7730 h1         1 29T       0.077200
     42 H14        491.6090   -30.6440    23.9400 hn         1 29T       0.342500
     43 H15        494.8720   -28.7240    25.6420 ha         1 29T       0.231000
     44 H16        494.0770   -26.5490    24.4870 h4         1 29T       0.210000
     45 O0A        496.1170   -23.5570    22.9000 os         1 29T      -0.226200
@<TRIPOS>BOND
     1     1     3 1   
     2     1    12 2   
     3     1    29 1   
     4     2     3 2   
     5     2    13 1   
     6     2    30 1   
     7     3     4 1   
     8     4    17 3   
     9     5     6 ar  
    10     5    10 ar  
    11     5    31 1   
    12     6     7 ar  
    13     6    32 1   
    14     7     8 ar  
    15     7    33 1   
    16     8     9 ar  
    17     8    34 1   
    18     9    10 ar  
    19     9    45 1   
    20    10    18 1   
    21    11    12 1   
    22    11    16 2   
    23    11    45 1   
    24    12    13 1   
    25    13    14 1   
    26    14    15 2   
    27    14    35 1   
    28    15    16 1   
    29    15    36 1   
    30    16    37 1   
    31    18    19 1   
    32    19    20 1   
    33    19    38 1   
    34    19    39 1   
    35    20    21 1   
    36    20    40 1   
    37    20    41 1   
    38    21    22 1   
    39    21    26 1   
    40    22    23 1   
    41    22    27 2   
    42    23    24 1   
    43    23    42 1   
    44    24    25 1   
    45    24    28 2   
    46    25    26 2   
    47    25    43 1   
    48    26    44 1   
@<TRIPOS>SUBSTRUCTURE
     1 29T         1 TEMP              0 ****  ****    0 ROOT
