@<TRIPOS>MOLECULE
29U
   49    50     1     0     0
SMALL
abcg2


@<TRIPOS>ATOM
      1 N13         16.2940   -16.0390    22.9790 n8         1 29U      -0.978200
      2 C5          17.6010   -15.3970    23.1700 c3         1 29U       0.091500
      3 C14         17.4770   -13.9780    22.6210 c          1 29U       0.622100
      4 O32         16.5690   -13.2430    23.0300 o          1 29U      -0.631100
      5 C33         18.0650   -15.3460    24.6360 c3         1 29U      -0.111400
      6 C48         19.4430   -14.7190    24.8360 c3         1 29U      -0.087100
      7 N1          18.3590   -13.5500    21.7050 n          1 29U      -0.396800
      8 C1          18.2440   -12.1960    21.1600 c5         1 29U       0.031700
      9 C7          16.8920   -11.9730    20.4840 c          1 29U       0.597100
     10 O22         16.3560   -12.8480    19.8090 o          1 29U      -0.581100
     11 C2          19.3970   -12.1070    20.1420 c5         1 29U      -0.084400
     12 C3          20.4140   -13.1250    20.6620 c5         1 29U      -0.094400
     13 C4          19.5360   -14.2610    21.1770 c5         1 29U       0.110000
     14 N23         16.3950   -10.7300    20.6260 ns         1 29U      -0.500900
     15 C24         15.1460   -10.3000    20.0330 c3         1 29U       0.147300
     16 C25         13.9680   -10.3170    20.9850 ca         1 29U      -0.101300
     17 C30         13.9250   -11.1690    22.0880 ca         1 29U      -0.108500
     18 C29         12.8120   -11.1900    22.9180 ca         1 29U      -0.079000
     19 C28         11.7190   -10.3570    22.6740 ca         1 29U      -0.145900
     20 C21         10.5360   -10.3990    23.5800 ce         1 29U       0.661800
     21 N46         10.2580   -11.4880    24.2100 n2         1 29U      -0.826100
     22 N47          9.7900    -9.2510    23.6310 nv         1 29U      -1.089200
     23 C27         11.7670    -9.5010    21.5710 ca         1 29U      -0.079000
     24 C26         12.8780    -9.4850    20.7380 ca         1 29U      -0.108500
     25 HN13        16.3100   -16.9580    23.4120 hn         1 29U       0.405500
     26 HN1A        15.5910   -15.4970    23.4740 hn         1 29U       0.405500
     27 H5          18.3270   -15.9630    22.5890 h1         1 29U       0.065700
     28 H33         17.3130   -14.7960    25.2090 hc         1 29U       0.049700
     29 H33A        18.0660   -16.3730    25.0120 hc         1 29U       0.049700
     30 H48         20.2120   -15.2770    24.2980 hc         1 29U       0.035033
     31 H48A        19.4680   -13.6850    24.4810 hc         1 29U       0.035033
     32 H48B        19.7150   -14.7120    25.8930 hc         1 29U       0.035033
     33 H1          18.3770   -11.4700    21.9650 h1         1 29U       0.061700
     34 H2          19.0370   -12.4100    19.1570 hc         1 29U       0.063700
     35 H2A         19.7880   -11.0950    20.0720 hc         1 29U       0.063700
     36 H3          21.1100   -13.4580    19.8940 hc         1 29U       0.056200
     37 H3A         20.9870   -12.6990    21.4880 hc         1 29U       0.056200
     38 H4          20.0230   -14.8430    21.9530 h1         1 29U       0.055700
     39 H4A         19.2390   -14.9320    20.3670 h1         1 29U       0.055700
     40 HN23        16.8550   -10.1000    21.2650 hn         1 29U       0.312500
     41 H24         15.2750    -9.2940    19.6320 h1         1 29U       0.065700
     42 H24A        14.9440   -10.9640    19.1920 h1         1 29U       0.065700
     43 H30         14.7670   -11.8140    22.3070 ha         1 29U       0.128500
     44 H29         12.7870   -11.8520    23.7730 ha         1 29U       0.125500
     45 HN46         9.4450   -11.3570    24.8120 hn         1 29U       0.365400
     46 HN47        10.2280    -8.3740    23.3980 hn         1 29U       0.464500
     47 HN4A         9.0670    -9.1940    24.3320 hn         1 29U       0.464500
     48 H27         10.9310    -8.8520    21.3460 ha         1 29U       0.125500
     49 H26         12.8960    -8.8150    19.8860 ha         1 29U       0.128500
@<TRIPOS>BOND
     1     1     2 1   
     2     1    25 1   
     3     1    26 1   
     4     2     3 1   
     5     2     5 1   
     6     2    27 1   
     7     3     4 2   
     8     3     7 1   
     9     5     6 1   
    10     5    28 1   
    11     5    29 1   
    12     6    30 1   
    13     6    31 1   
    14     6    32 1   
    15     7     8 1   
    16     7    13 1   
    17     8     9 1   
    18     8    11 1   
    19     8    33 1   
    20     9    10 2   
    21     9    14 1   
    22    11    12 1   
    23    11    34 1   
    24    11    35 1   
    25    12    13 1   
    26    12    36 1   
    27    12    37 1   
    28    13    38 1   
    29    13    39 1   
    30    14    15 1   
    31    14    40 1   
    32    15    16 1   
    33    15    41 1   
    34    15    42 1   
    35    16    17 ar  
    36    16    24 ar  
    37    17    18 ar  
    38    17    43 1   
    39    18    19 ar  
    40    18    44 1   
    41    19    20 1   
    42    19    23 ar  
    43    20    21 2   
    44    20    22 1   
    45    21    45 1   
    46    22    46 1   
    47    22    47 1   
    48    23    24 ar  
    49    23    48 1   
    50    24    49 1   
@<TRIPOS>SUBSTRUCTURE
     1 29U         1 TEMP              0 ****  ****    0 ROOT
