@<TRIPOS>MOLECULE
29U
   49    50     1     0     0
SMALL
No Charge or Current Charge


@<TRIPOS>ATOM
      1 N13         18.9130   -17.3900    21.4800 n8         1 29U      -0.978200
      2 C5          19.2500   -16.1990    22.3310 c3         1 29U       0.091500
      3 C14         18.1330   -15.0770    22.3830 c          1 29U       0.622100
      4 O32         16.9810   -15.3560    22.7110 o          1 29U      -0.631100
      5 C33         19.6280   -16.6950    23.7510 c3         1 29U      -0.111400
      6 C48         20.1590   -15.5910    24.6910 c3         1 29U      -0.087100
      7 N1          18.4570   -13.7470    22.0150 n          1 29U      -0.396800
      8 C1          17.4310   -12.6660    21.9300 c5         1 29U       0.031700
      9 C7          16.2340   -12.9440    20.9630 c          1 29U       0.597100
     10 O22         16.1910   -13.7360    20.0290 o          1 29U      -0.581100
     11 C2          18.2720   -11.4940    21.3400 c5         1 29U      -0.084400
     12 C3          19.6520   -11.7260    21.9980 c5         1 29U      -0.094400
     13 C4          19.8370   -13.2530    21.8160 c5         1 29U       0.110000
     14 N23         15.1740   -12.1340    21.3070 ns         1 29U      -0.500900
     15 C24         13.8910   -12.1240    20.6100 c3         1 29U       0.147300
     16 C25         12.9610   -11.0740    21.1980 ca         1 29U      -0.101300
     17 C30         12.0730   -11.4110    22.2340 ca         1 29U      -0.108500
     18 C29         11.2150   -10.4390    22.7800 ca         1 29U      -0.079000
     19 C28         11.2400    -9.1050    22.3130 ca         1 29U      -0.145900
     20 C21         10.2960    -8.0850    22.8820 ce         1 29U       0.661800
     21 N46          9.2660    -8.3870    23.5580 n2         1 29U      -0.826100
     22 N47         10.6170    -6.7790    22.7600 nv         1 29U      -1.089200
     23 C27         12.1250    -8.7810    21.2560 ca         1 29U      -0.079000
     24 C26         12.9810    -9.7550    20.7110 ca         1 29U      -0.108500
     25 HN13        19.6150   -18.1250    21.6260 hn         1 29U       0.405500
     26 HN1A        18.0440   -17.8120    21.8310 hn         1 29U       0.405500
     27 H5          20.1530   -15.7590    21.8890 h1         1 29U       0.065700
     28 H33         18.7510   -17.1610    24.2190 hc         1 29U       0.049700
     29 H33A        20.3960   -17.4760    23.6730 hc         1 29U       0.049700
     30 H48         21.0730   -15.1420    24.2860 hc         1 29U       0.035033
     31 H48A        19.4140   -14.7990    24.8350 hc         1 29U       0.035033
     32 H48B        20.3970   -16.0130    25.6750 hc         1 29U       0.035033
     33 H1          17.0490   -12.4280    22.9320 h1         1 29U       0.061700
     34 H2          18.3470   -11.5600    20.2470 hc         1 29U       0.063700
     35 H2A         17.8480   -10.5110    21.5780 hc         1 29U       0.063700
     36 H3          20.4540   -11.1480    21.5240 hc         1 29U       0.056200
     37 H3A         19.6340   -11.4550    23.0600 hc         1 29U       0.056200
     38 H4          20.5470   -13.6570    22.5490 h1         1 29U       0.055700
     39 H4A         20.1940   -13.4990    20.8070 h1         1 29U       0.055700
     40 HN23        15.2990   -11.5060    22.0920 hn         1 29U       0.312500
     41 H24         14.0630   -11.9160    19.5450 h1         1 29U       0.065700
     42 H24A        13.4320   -13.1190    20.6910 h1         1 29U       0.065700
     43 H30         12.0430   -12.4280    22.6190 ha         1 29U       0.128500
     44 H29         10.5350   -10.7280    23.5780 ha         1 29U       0.125500
     45 HN46         8.6930    -7.5420    23.6570 hn         1 29U       0.365400
     46 HN47        11.5800    -6.6030    22.4980 hn         1 29U       0.464500
     47 HN4A        10.2500    -6.1610    23.4740 hn         1 29U       0.464500
     48 H27         12.1500    -7.7770    20.8390 ha         1 29U       0.125500
     49 H26         13.6580    -9.4820    19.9040 ha         1 29U       0.128500
@<TRIPOS>BOND
     1     1     2 1   
     2     1    25 1   
     3     1    26 1   
     4     2     3 1   
     5     2     5 1   
     6     2    27 1   
     7     3     4 2   
     8     3     7 1   
     9     5     6 1   
    10     5    28 1   
    11     5    29 1   
    12     6    30 1   
    13     6    31 1   
    14     6    32 1   
    15     7     8 1   
    16     7    13 1   
    17     8     9 1   
    18     8    11 1   
    19     8    33 1   
    20     9    10 2   
    21     9    14 1   
    22    11    12 1   
    23    11    34 1   
    24    11    35 1   
    25    12    13 1   
    26    12    36 1   
    27    12    37 1   
    28    13    38 1   
    29    13    39 1   
    30    14    15 1   
    31    14    40 1   
    32    15    16 1   
    33    15    41 1   
    34    15    42 1   
    35    16    17 ar  
    36    16    24 ar  
    37    17    18 ar  
    38    17    43 1   
    39    18    19 ar  
    40    18    44 1   
    41    19    20 1   
    42    19    23 ar  
    43    20    21 2   
    44    20    22 1   
    45    21    45 1   
    46    22    46 1   
    47    22    47 1   
    48    23    24 ar  
    49    23    48 1   
    50    24    49 1   
@<TRIPOS>SUBSTRUCTURE
     1 29U         1 TEMP              0 ****  ****    0 ROOT
