@<TRIPOS>MOLECULE
29V
   48    49     1     0     0
SMALL
abcg2


@<TRIPOS>ATOM
      1 C4           4.3280    -0.0570     2.7240 c3         1 29V      -0.084100
      2 C1           2.5820    -1.2790     1.4160 c6         1 29V      -0.072400
      3 C2           2.1200    -1.7140     0.0330 c6         1 29V      -0.032200
      4 C8           0.9020    -0.2380    -1.5770 ce         1 29V      -0.127000
      5 C5           4.1010     0.3410     0.2180 ca         1 29V      -0.062300
      6 C6           3.1710     0.3910    -0.8370 ca         1 29V      -0.022800
      7 C16          5.2020     1.1990     0.1820 ca         1 29V      -0.116000
      8 C21          4.4940     2.1290    -1.9080 ca         1 29V      -0.117000
      9 C18          3.9690    -0.6490     1.3620 c6         1 29V      -0.015400
     10 C3           5.4040     2.0890    -0.8590 ca         1 29V      -0.120000
     11 C17          3.4000     1.2840    -1.8910 ca         1 29V      -0.107000
     12 C7           1.9930    -0.5070    -0.8470 cf         1 29V      -0.086400
     13 C9          -0.3030    -1.0750    -1.7380 ce         1 29V      -0.143200
     14 C19         -0.4730    -1.6350    -3.1250 c3         1 29V      -0.038900
     15 C10         -1.2180    -1.2840    -0.7870 c2         1 29V      -0.152200
     16 C11         -1.2270    -0.7270     0.6050 c3         1 29V       0.005000
     17 C12         -2.3810     0.2190     0.7850 c2         1 29V      -0.304200
     18 C13         -3.5460    -0.0060     1.3950 c2         1 29V      -0.009400
     19 C20         -3.9090    -1.2920     2.0740 c3         1 29V      -0.058900
     20 C14         -4.5970     1.0620     1.4670 c3         1 29V      -0.194200
     21 C15         -5.8870     0.7760     0.6650 c          1 29V       0.722000
     22 O1          -5.8370    -0.0950    -0.2210 o          1 29V      -0.734000
     23 O2          -6.8740     1.4840     0.9570 o          1 29V      -0.734000
     24 H1           4.1710    -0.8030     3.5040 hc         1 29V       0.032700
     25 H2           5.3690     0.2580     2.7880 hc         1 29V       0.032700
     26 H3           3.6990     0.8050     2.9540 hc         1 29V       0.032700
     27 H4           1.8680    -0.5600     1.8330 hc         1 29V       0.045700
     28 H5           2.5990    -2.1310     2.0990 hc         1 29V       0.045700
     29 H6           2.8630    -2.3980    -0.3930 hc         1 29V       0.050200
     30 H7           1.1800    -2.2610     0.0840 hc         1 29V       0.050200
     31 H8           0.8950     0.6560    -2.1960 ha         1 29V       0.169000
     32 H9           5.9270     1.1690     0.9850 ha         1 29V       0.103000
     33 H10          4.6430     2.8030    -2.7410 ha         1 29V       0.106000
     34 H11          4.6790    -1.4600     1.1530 hc         1 29V       0.045700
     35 H12          6.2700     2.7380    -0.8570 ha         1 29V       0.103000
     36 H13          2.7210     1.3070    -2.7340 ha         1 29V       0.112000
     37 H14          0.3310    -2.3350    -3.3650 hc         1 29V       0.032033
     38 H15         -1.4240    -2.1550    -3.2380 hc         1 29V       0.032033
     39 H16         -0.4290    -0.8410    -3.8750 hc         1 29V       0.032033
     40 H17         -2.0850    -1.8870    -1.0440 ha         1 29V       0.183000
     41 H18         -1.2750    -1.5520     1.3220 hc         1 29V       0.035200
     42 H19         -0.2940    -0.1970     0.8080 hc         1 29V       0.035200
     43 H20         -2.2390     1.1890     0.3130 ha         1 29V       0.163000
     44 H21         -4.1790    -1.1150     3.1190 hc         1 29V       0.033700
     45 H22         -4.7840    -1.7300     1.5920 hc         1 29V       0.033700
     46 H23         -3.1140    -2.0350     2.0570 hc         1 29V       0.033700
     47 H24         -4.8710     1.2440     2.5120 hc         1 29V       0.029700
     48 H25         -4.1890     2.0100     1.0990 hc         1 29V       0.029700
@<TRIPOS>BOND
     1     1     9 1   
     2     1    24 1   
     3     1    25 1   
     4     1    26 1   
     5     2     3 1   
     6     2     9 1   
     7     2    27 1   
     8     2    28 1   
     9     3    12 1   
    10     3    29 1   
    11     3    30 1   
    12     4    12 2   
    13     4    13 1   
    14     4    31 1   
    15     5     6 ar  
    16     5     7 ar  
    17     5     9 1   
    18     6    11 ar  
    19     6    12 1   
    20     7    10 ar  
    21     7    32 1   
    22     8    10 ar  
    23     8    11 ar  
    24     8    33 1   
    25     9    34 1   
    26    10    35 1   
    27    11    36 1   
    28    13    14 1   
    29    13    15 2   
    30    14    37 1   
    31    14    38 1   
    32    14    39 1   
    33    15    16 1   
    34    15    40 1   
    35    16    17 1   
    36    16    41 1   
    37    16    42 1   
    38    17    18 2   
    39    17    43 1   
    40    18    19 1   
    41    18    20 1   
    42    19    44 1   
    43    19    45 1   
    44    19    46 1   
    45    20    21 1   
    46    20    47 1   
    47    20    48 1   
    48    21    22 1   
    49    21    23 1   
@<TRIPOS>SUBSTRUCTURE
     1 29V         1 TEMP              0 ****  ****    0 ROOT
