@<TRIPOS>MOLECULE
29V
   48    49     1     0     0
SMALL
No Charge or Current Charge


@<TRIPOS>ATOM
      1 C4           3.3820    -0.2960     2.9460 c3         1 29V      -0.084100
      2 C1           2.0010    -1.4590     1.1620 c6         1 29V      -0.072400
      3 C2           1.8950    -1.7690    -0.3380 c6         1 29V      -0.032200
      4 C8           1.0250    -0.1270    -2.0650 ce         1 29V      -0.127000
      5 C5           3.8740     0.1620     0.4450 ca         1 29V      -0.062300
      6 C6           3.1940     0.3370    -0.7960 ca         1 29V      -0.022800
      7 C16          5.0460     0.9090     0.7010 ca         1 29V      -0.116000
      8 C21          4.8540     2.0240    -1.4430 ca         1 29V      -0.117000
      9 C18          3.3870    -0.8640     1.4970 c6         1 29V      -0.015400
     10 C3           5.5280     1.8380    -0.2310 ca         1 29V      -0.120000
     11 C17          3.7010     1.2760    -1.7240 ca         1 29V      -0.107000
     12 C7           1.9780    -0.4540    -1.1350 cf         1 29V      -0.086400
     13 C9          -0.1810    -0.8940    -2.4170 ce         1 29V      -0.143200
     14 C19         -0.2410    -1.3980    -3.8480 c3         1 29V      -0.038900
     15 C10         -1.2270    -1.0620    -1.5720 c2         1 29V      -0.152200
     16 C11         -1.3550    -0.5460    -0.1500 c3         1 29V       0.005000
     17 C12         -2.7400     0.0100     0.1260 c2         1 29V      -0.304200
     18 C13         -3.2870     0.2550     1.3320 c2         1 29V      -0.009400
     19 C20         -2.5730     0.0360     2.6610 c3         1 29V      -0.058900
     20 C14         -4.6920     0.8320     1.4850 c3         1 29V      -0.194200
     21 C15         -5.6690    -0.1910     2.0930 c          1 29V       0.722000
     22 O1          -6.2080    -0.9900     1.3410 o          1 29V      -0.734000
     23 O2          -5.7930    -0.2240     3.3090 o          1 29V      -0.734000
     24 H1           2.9620    -1.0220     3.6520 hc         1 29V       0.032700
     25 H2           4.3900    -0.0580     3.3020 hc         1 29V       0.032700
     26 H3           2.7780     0.6170     3.0110 hc         1 29V       0.032700
     27 H4           1.2090    -0.7530     1.4450 hc         1 29V       0.045700
     28 H5           1.8320    -2.3730     1.7480 hc         1 29V       0.045700
     29 H6           2.7120    -2.4370    -0.6450 hc         1 29V       0.050200
     30 H7           0.9670    -2.3150    -0.5390 hc         1 29V       0.050200
     31 H8           1.1460     0.7970    -2.6280 ha         1 29V       0.169000
     32 H9           5.6010     0.7680     1.6240 ha         1 29V       0.103000
     33 H10          5.2310     2.7380    -2.1710 ha         1 29V       0.106000
     34 H11          4.1100    -1.6920     1.5010 hc         1 29V       0.045700
     35 H12          6.4300     2.4070    -0.0170 ha         1 29V       0.103000
     36 H13          3.2200     1.4220    -2.6870 ha         1 29V       0.112000
     37 H14          0.1050    -2.4360    -3.9110 hc         1 29V       0.032033
     38 H15         -1.2620    -1.3620    -4.2460 hc         1 29V       0.032033
     39 H16          0.3900    -0.7980    -4.5160 hc         1 29V       0.032033
     40 H17         -2.1020    -1.6200    -1.9070 ha         1 29V       0.183000
     41 H18         -1.1280    -1.3610     0.5470 hc         1 29V       0.035200
     42 H19         -0.6150     0.2410     0.0400 hc         1 29V       0.035200
     43 H20         -3.3160     0.2200    -0.7760 ha         1 29V       0.163000
     44 H21         -2.5870     0.9480     3.2700 hc         1 29V       0.033700
     45 H22         -3.0510    -0.7610     3.2420 hc         1 29V       0.033700
     46 H23         -1.5210    -0.2420     2.5350 hc         1 29V       0.033700
     47 H24         -4.6130     1.7100     2.1370 hc         1 29V       0.029700
     48 H25         -5.0400     1.0920     0.4780 hc         1 29V       0.029700
@<TRIPOS>BOND
     1     1     9 1   
     2     1    24 1   
     3     1    25 1   
     4     1    26 1   
     5     2     3 1   
     6     2     9 1   
     7     2    27 1   
     8     2    28 1   
     9     3    12 1   
    10     3    29 1   
    11     3    30 1   
    12     4    12 2   
    13     4    13 1   
    14     4    31 1   
    15     5     6 ar  
    16     5     7 ar  
    17     5     9 1   
    18     6    11 ar  
    19     6    12 1   
    20     7    10 ar  
    21     7    32 1   
    22     8    10 ar  
    23     8    11 ar  
    24     8    33 1   
    25     9    34 1   
    26    10    35 1   
    27    11    36 1   
    28    13    14 1   
    29    13    15 2   
    30    14    37 1   
    31    14    38 1   
    32    14    39 1   
    33    15    16 1   
    34    15    40 1   
    35    16    17 1   
    36    16    41 1   
    37    16    42 1   
    38    17    18 2   
    39    17    43 1   
    40    18    19 1   
    41    18    20 1   
    42    19    44 1   
    43    19    45 1   
    44    19    46 1   
    45    20    21 1   
    46    20    47 1   
    47    20    48 1   
    48    21    22 1   
    49    21    23 1   
@<TRIPOS>SUBSTRUCTURE
     1 29V         1 TEMP              0 ****  ****    0 ROOT
