@<TRIPOS>MOLECULE
29W
   45    47     1     0     0
SMALL
abcg2


@<TRIPOS>ATOM
      1 OXT          1.2300    -4.4550     0.1280 o          1 29W      -0.706000
      2 C            1.2780    -3.2550    -0.1950 c          1 29W       0.721000
      3 O            1.0390    -2.7470    -1.3020 o          1 29W      -0.706000
      4 CA           1.6930    -2.3080     0.9580 c3         1 29W      -0.103400
      5 N            1.7850    -0.9180     0.5750 na         1 29W       0.014300
      6 CAZ          2.9350    -0.1730     0.5520 ca         1 29W      -0.071200
      7 CAM          4.2100    -0.4570     1.0350 ca         1 29W      -0.068000
      8 CAL          5.1980     0.4970     0.8870 ca         1 29W      -0.188000
      9 CAV          4.9330     1.7360     0.2670 ca         1 29W       0.088100
     10 OAR          5.8700     2.7020     0.1080 os         1 29W      -0.357100
     11 CAA          7.1900     2.4450     0.5350 c3         1 29W       0.158900
     12 CAN          3.6680     2.0200    -0.2160 ca         1 29W      -0.111000
     13 CAY          2.6610     1.0600    -0.0810 ca         1 29W      -0.070800
     14 CAO          1.2950     1.0180    -0.4690 cc         1 29W      -0.264200
     15 CAX          0.8110    -0.2000    -0.0620 cd         1 29W      -0.072300
     16 CAT         -0.5680    -0.6920    -0.1790 c          1 29W       0.696300
     17 OAD         -1.1220    -1.3850     0.6460 o          1 29W      -0.557100
     18 NAQ         -1.2230    -0.2210    -1.2910 ns         1 29W      -0.570300
     19 SBB         -2.8520    -0.4870    -1.5850 sy         1 29W       1.188300
     20 OAE         -3.1030     0.2680    -2.8000 o          1 29W      -0.535000
     21 OAF         -3.1330    -1.9060    -1.5520 o          1 29W      -0.535000
     22 CAW         -3.6540     0.2970    -0.2280 ca         1 29W      -0.291500
     23 CAJ         -3.7160     1.6860    -0.2040 ca         1 29W       0.003500
     24 CAH         -4.3510     2.3080     0.8560 ca         1 29W      -0.139000
     25 CAU         -4.9310     1.5650     1.8860 ca         1 29W      -0.029300
     26 CAB         -5.6390     2.2550     3.0120 c3         1 29W      -0.052800
     27 CAI         -4.8540     0.1760     1.8310 ca         1 29W      -0.139000
     28 CAK         -4.2160    -0.4670     0.7810 ca         1 29W       0.003500
     29 H2           0.9980    -2.4250     1.7890 h1         1 29W       0.053200
     30 H3           2.6700    -2.6180     1.3270 h1         1 29W       0.053200
     31 H4           4.4450    -1.3940     1.5220 ha         1 29W       0.117000
     32 H5           6.1850     0.2690     1.2640 ha         1 29W       0.100000
     33 H6           7.7710     3.3310     0.2900 h1         1 29W       0.028033
     34 H7           7.2520     2.2760     1.6140 h1         1 29W       0.028033
     35 H8           7.6300     1.5860     0.0200 h1         1 29W       0.028033
     36 H9           3.4670     2.9710    -0.6940 ha         1 29W       0.114000
     37 H10          0.7360     1.8020    -0.9560 ha         1 29W       0.188000
     38 H11         -0.7230     0.2870    -2.0110 hn         1 29W       0.355500
     39 H12         -3.2760     2.2810    -0.9930 ha         1 29W       0.140500
     40 H13         -4.3990     3.3890     0.8820 ha         1 29W       0.110000
     41 H14         -6.6440     2.5520     2.7050 hc         1 29W       0.042367
     42 H15         -5.7380     1.6070     3.8810 hc         1 29W       0.042367
     43 H16         -5.1140     3.1600     3.3140 hc         1 29W       0.042367
     44 H17         -5.2950    -0.4170     2.6220 ha         1 29W       0.110000
     45 H18         -4.1640    -1.5460     0.7590 ha         1 29W       0.140500
@<TRIPOS>BOND
     1     1     2 1   
     2     2     3 1   
     3     2     4 1   
     4     4     5 1   
     5     4    29 1   
     6     4    30 1   
     7     5     6 1   
     8     5    15 1   
     9     6     7 ar  
    10     6    13 ar  
    11     7     8 ar  
    12     7    31 1   
    13     8     9 ar  
    14     8    32 1   
    15     9    10 1   
    16     9    12 ar  
    17    10    11 1   
    18    11    33 1   
    19    11    34 1   
    20    11    35 1   
    21    12    13 ar  
    22    12    36 1   
    23    13    14 1   
    24    14    15 2   
    25    14    37 1   
    26    15    16 1   
    27    16    17 2   
    28    16    18 1   
    29    18    19 1   
    30    18    38 1   
    31    19    20 2   
    32    19    21 2   
    33    19    22 1   
    34    22    23 ar  
    35    22    28 ar  
    36    23    24 ar  
    37    23    39 1   
    38    24    25 ar  
    39    24    40 1   
    40    25    26 1   
    41    25    27 ar  
    42    26    41 1   
    43    26    42 1   
    44    26    43 1   
    45    27    28 ar  
    46    27    44 1   
    47    28    45 1   
@<TRIPOS>SUBSTRUCTURE
     1 29W         1 TEMP              0 ****  ****    0 ROOT
