@<TRIPOS>MOLECULE
29W
   45    47     1     0     0
SMALL
No Charge or Current Charge


@<TRIPOS>ATOM
      1 OXT          1.4910    -3.6950    -0.0980 o          1 29W      -0.706000
      2 C            2.0320    -3.2550     0.9070 c          1 29W       0.721000
      3 O            2.9650    -3.8100     1.4700 o          1 29W      -0.706000
      4 CA           1.5100    -1.9400     1.5020 c3         1 29W      -0.103400
      5 N            1.7100    -0.7850     0.6060 na         1 29W       0.014300
      6 CAZ          2.9300    -0.1290     0.4680 ca         1 29W      -0.071200
      7 CAM          4.1510    -0.3960     1.1110 ca         1 29W      -0.068000
      8 CAL          5.2640     0.4180     0.8030 ca         1 29W      -0.188000
      9 CAV          5.1420     1.4780    -0.1360 ca         1 29W       0.088100
     10 OAR          6.2010     2.2980    -0.4680 os         1 29W      -0.357100
     11 CAA          7.5070     2.1380     0.1140 c3         1 29W       0.158900
     12 CAN          3.9020     1.7170    -0.7630 ca         1 29W      -0.111000
     13 CAY          2.8220     0.8900    -0.4330 ca         1 29W      -0.070800
     14 CAO          1.4750     0.9050    -0.9080 cc         1 29W      -0.264200
     15 CAX          0.7880    -0.1330    -0.2630 cd         1 29W      -0.072300
     16 CAT         -0.6610    -0.4680    -0.4720 c          1 29W       0.696300
     17 OAD         -1.2490    -1.3670     0.1090 o          1 29W      -0.557100
     18 NAQ         -1.2810     0.3390    -1.3730 ns         1 29W      -0.570300
     19 SBB         -2.8830     0.3030    -1.8350 sy         1 29W       1.188300
     20 OAE         -3.0310     1.4290    -2.7640 o          1 29W      -0.535000
     21 OAF         -3.1670    -1.0750    -2.2520 o          1 29W      -0.535000
     22 CAW         -3.8100     0.6620    -0.3310 ca         1 29W      -0.291500
     23 CAJ         -4.0110     1.9990     0.0690 ca         1 29W       0.003500
     24 CAH         -4.7270     2.2800     1.2450 ca         1 29W      -0.139000
     25 CAU         -5.2460     1.2360     2.0330 ca         1 29W      -0.029300
     26 CAB         -6.0220     1.5450     3.3030 c3         1 29W      -0.052800
     27 CAI         -5.0440    -0.0970     1.6310 ca         1 29W      -0.139000
     28 CAK         -4.3280    -0.3870     0.4560 ca         1 29W       0.003500
     29 H2           0.4480    -2.0630     1.7350 h1         1 29W       0.053200
     30 H3           2.0310    -1.7510     2.4480 h1         1 29W       0.053200
     31 H4           4.2470    -1.2070     1.8280 ha         1 29W       0.117000
     32 H5           6.2070     0.2110     1.3000 ha         1 29W       0.100000
     33 H6           8.1970     2.8910    -0.2870 h1         1 29W       0.028033
     34 H7           7.4650     2.2610     1.2040 h1         1 29W       0.028033
     35 H8           7.9160     1.1460    -0.1140 h1         1 29W       0.028033
     36 H9           3.7890     2.5220    -1.4840 ha         1 29W       0.114000
     37 H10          1.0710     1.6020    -1.6370 ha         1 29W       0.188000
     38 H11         -0.7780     1.0850    -1.8150 hn         1 29W       0.355500
     39 H12         -3.6150     2.8230    -0.5240 ha         1 29W       0.140500
     40 H13         -4.8790     3.3150     1.5450 ha         1 29W       0.110000
     41 H14         -7.0920     1.6550     3.0890 hc         1 29W       0.042367
     42 H15         -5.9090     0.7460     4.0450 hc         1 29W       0.042367
     43 H16         -5.6760     2.4760     3.7670 hc         1 29W       0.042367
     44 H17         -5.4400    -0.9130     2.2300 ha         1 29W       0.110000
     45 H18         -4.1780    -1.4270     0.1670 ha         1 29W       0.140500
@<TRIPOS>BOND
     1     1     2 1   
     2     2     3 1   
     3     2     4 1   
     4     4     5 1   
     5     4    29 1   
     6     4    30 1   
     7     5     6 1   
     8     5    15 1   
     9     6     7 ar  
    10     6    13 ar  
    11     7     8 ar  
    12     7    31 1   
    13     8     9 ar  
    14     8    32 1   
    15     9    10 1   
    16     9    12 ar  
    17    10    11 1   
    18    11    33 1   
    19    11    34 1   
    20    11    35 1   
    21    12    13 ar  
    22    12    36 1   
    23    13    14 1   
    24    14    15 2   
    25    14    37 1   
    26    15    16 1   
    27    16    17 2   
    28    16    18 1   
    29    18    19 1   
    30    18    38 1   
    31    19    20 2   
    32    19    21 2   
    33    19    22 1   
    34    22    23 ar  
    35    22    28 ar  
    36    23    24 ar  
    37    23    39 1   
    38    24    25 ar  
    39    24    40 1   
    40    25    26 1   
    41    25    27 ar  
    42    26    41 1   
    43    26    42 1   
    44    26    43 1   
    45    27    28 ar  
    46    27    44 1   
    47    28    45 1   
@<TRIPOS>SUBSTRUCTURE
     1 29W         1 TEMP              0 ****  ****    0 ROOT
