@<TRIPOS>MOLECULE
29Y
   53    57     1     0     0
SMALL
bcc


@<TRIPOS>ATOM
      1 C1           9.2870     1.1840     0.3460 c3         1 29Y       0.148100
      2 N2           8.9460     0.0320     1.1530 n3         1 29Y      -0.711600
      3 C3           9.9750    -0.2420     2.1330 c3         1 29Y       0.148100
      4 C4           7.6520     0.1840     1.7910 c3         1 29Y       0.209100
      5 C5           6.5230     0.2270     0.7970 ca         1 29Y      -0.080300
      6 C6           5.6930     1.3370     0.6920 ca         1 29Y      -0.114000
      7 C7           4.6490     1.3620    -0.2230 ca         1 29Y      -0.124000
      8 C8           4.4040     0.2780    -1.0600 ca         1 29Y      -0.059300
      9 C9           5.2420    -0.8330    -0.9590 ca         1 29Y      -0.124000
     10 C10          6.2850    -0.8550    -0.0470 ca         1 29Y      -0.114000
     11 C11          3.2550     0.3390    -1.9970 cx         1 29Y      -0.043400
     12 C13          3.0350    -0.6300    -3.1010 cx         1 29Y      -0.076400
     13 C14          2.1520    -0.7100    -1.8930 cx         1 29Y      -0.248700
     14 C16          0.7560    -0.2180    -1.9840 c          1 29Y       0.707100
     15 O17          0.3890     0.6110    -2.7870 o          1 29Y      -0.524100
     16 N18         -0.0740    -0.7820    -1.0390 ns         1 29Y      -0.478400
     17 C19         -1.3880    -0.4690    -0.8080 cc         1 29Y       0.484800
     18 N20         -2.0990     0.3770    -1.4590 nd         1 29Y      -0.549100
     19 C21         -3.3680     0.4460    -0.9350 ca         1 29Y       0.116400
     20 C22         -4.3950     1.2680    -1.3950 ca         1 29Y      -0.076000
     21 C23         -5.6210     1.2360    -0.7620 ca         1 29Y      -0.126000
     22 C24         -5.8710     0.3980     0.3390 ca         1 29Y       0.022000
     23 C25         -4.8480    -0.4270     0.8010 ca         1 29Y      -0.085000
     24 C26         -3.6200    -0.3910     0.1610 ca         1 29Y      -0.047100
     25 S27         -2.1860    -1.2950     0.5270 ss         1 29Y      -0.166100
     26 C28         -7.1780     0.3910     0.9910 cc         1 29Y      -0.223300
     27 C29         -8.2690     1.2010     0.7280 cd         1 29Y      -0.122300
     28 N30         -9.2360     0.8290     1.5760 na         1 29Y      -0.000600
     29 N32         -8.8760    -0.1640     2.3800 nd         1 29Y      -0.519800
     30 C33         -7.6330    -0.4400     2.0390 cc         1 29Y       0.318200
     31 H1          10.2580     1.0310    -0.1250 h1         1 29Y       0.031867
     32 H2           8.5530     1.3270    -0.4460 h1         1 29Y       0.031867
     33 H3           9.3400     2.1180     0.9290 h1         1 29Y       0.031867
     34 H5          10.1030     0.5670     2.8700 h1         1 29Y       0.031867
     35 H6           9.7360    -1.1550     2.6820 h1         1 29Y       0.031867
     36 H7          10.9340    -0.3910     1.6360 h1         1 29Y       0.031867
     37 H8           7.5080    -0.6700     2.4600 h1         1 29Y       0.037700
     38 H9           7.6110     1.0840     2.4290 h1         1 29Y       0.037700
     39 H10          5.8640     2.1960     1.3300 ha         1 29Y       0.136000
     40 H11          4.0170     2.2400    -0.2840 ha         1 29Y       0.131000
     41 H13          5.0880    -1.6950    -1.5970 ha         1 29Y       0.131000
     42 H14          6.9260    -1.7260     0.0080 ha         1 29Y       0.136000
     43 H12          2.8900     1.3430    -2.1830 hc         1 29Y       0.101700
     44 H16          2.5970    -0.2510    -4.0150 hc         1 29Y       0.087200
     45 H17          3.7400    -1.4390    -3.2400 hc         1 29Y       0.087200
     46 H15          2.3410    -1.5190    -1.1980 hc         1 29Y       0.091700
     47 H18          0.3410    -1.4690    -0.4270 hn         1 29Y       0.332500
     48 H19         -4.2290     1.9220    -2.2410 ha         1 29Y       0.153000
     49 H20         -6.4070     1.8780    -1.1350 ha         1 29Y       0.129000
     50 H21         -4.9980    -1.0830     1.6480 ha         1 29Y       0.141000
     51 H22         -8.4190     2.0000     0.0200 h4         1 29Y       0.174000
     52 H31        -10.1600     1.2230     1.6460 hn         1 29Y       0.322700
     53 H23         -7.0980    -1.2280     2.5490 h4         1 29Y       0.038100
@<TRIPOS>BOND
     1     1     2 1   
     2     1    31 1   
     3     1    32 1   
     4     1    33 1   
     5     2     3 1   
     6     2     4 1   
     7     3    34 1   
     8     3    35 1   
     9     3    36 1   
    10     4     5 1   
    11     4    37 1   
    12     4    38 1   
    13     5     6 ar  
    14     5    10 ar  
    15     6     7 ar  
    16     6    39 1   
    17     7     8 ar  
    18     7    40 1   
    19     8     9 ar  
    20     8    11 1   
    21     9    10 ar  
    22     9    41 1   
    23    10    42 1   
    24    11    12 1   
    25    11    13 1   
    26    11    43 1   
    27    12    13 1   
    28    12    44 1   
    29    12    45 1   
    30    13    14 1   
    31    13    46 1   
    32    14    15 2   
    33    14    16 1   
    34    16    17 1   
    35    16    47 1   
    36    17    18 2   
    37    17    25 1   
    38    18    19 1   
    39    19    20 ar  
    40    19    24 ar  
    41    20    21 ar  
    42    20    48 1   
    43    21    22 ar  
    44    21    49 1   
    45    22    23 ar  
    46    22    26 1   
    47    23    24 ar  
    48    23    50 1   
    49    24    25 1   
    50    26    27 2   
    51    26    30 1   
    52    27    28 1   
    53    27    51 1   
    54    28    29 1   
    55    28    52 1   
    56    29    30 2   
    57    30    53 1   
@<TRIPOS>SUBSTRUCTURE
     1 29Y         1 TEMP              0 ****  ****    0 ROOT
