@<TRIPOS>MOLECULE
29Y
   53    57     1     0     0
SMALL
No Charge or Current Charge


@<TRIPOS>ATOM
      1 C1           9.0260     1.3020     0.7440 c3         1 29Y       0.148100
      2 N2           8.8480    -0.0880     1.2250 n3         1 29Y      -0.711600
      3 C3           9.9520    -0.5210     2.1090 c3         1 29Y       0.148100
      4 C4           7.5140    -0.3320     1.8300 c3         1 29Y       0.209100
      5 C5           6.3520    -0.0950     0.8670 ca         1 29Y      -0.080300
      6 C6           5.4840     0.9980     1.0470 ca         1 29Y      -0.096000
      7 C7           4.4160     1.2110     0.1590 ca         1 29Y      -0.106000
      8 C8           4.1950     0.3360    -0.9230 ca         1 29Y      -0.059300
      9 C9           5.0670    -0.7600    -1.1000 ca         1 29Y      -0.106000
     10 C10          6.1360    -0.9720    -0.2110 ca         1 29Y      -0.096000
     11 C11          3.0370     0.5880    -1.8590 cx         1 29Y      -0.043400
     12 C13          3.1000     0.2770    -3.3390 cx         1 29Y      -0.076400
     13 C14          2.2110    -0.5500    -2.4320 cx         1 29Y      -0.248700
     14 C16          0.7160    -0.3770    -2.5080 c          1 29Y       0.640100
     15 O17          0.1260    -0.3110    -3.5760 o          1 29Y      -0.524100
     16 N18          0.1260    -0.3170    -1.2700 ns         1 29Y      -0.411400
     17 C19         -1.2020    -0.1610    -0.9370 cc         1 29Y       0.484800
     18 N20         -2.1660    -0.0350    -1.8560 nd         1 29Y      -0.549100
     19 C21         -3.3750     0.1060    -1.1870 ca         1 29Y       0.116400
     20 C22         -4.6110     0.2620    -1.8290 ca         1 29Y      -0.058000
     21 C23         -5.7840     0.3980    -1.0570 ca         1 29Y      -0.108000
     22 C24         -5.7270     0.3780     0.3600 ca         1 29Y       0.022000
     23 C25         -4.4680     0.2200     0.9830 ca         1 29Y      -0.067000
     24 C26         -3.3190     0.0870     0.1880 ca         1 29Y      -0.174000
     25 S27         -1.6820    -0.1170     0.7780 ss         1 29Y      -0.039200
     26 C28         -6.9350     0.5180     1.1850 cc         1 29Y      -0.158000
     27 C29         -8.1870     0.6740     0.6640 cd         1 29Y      -0.155000
     28 N30         -9.0250     0.7660     1.7860 na         1 29Y      -0.000200
     29 N32         -8.3240     0.6710     2.9900 nd         1 29Y      -0.519800
     30 C33         -7.0780     0.5230     2.5840 cc         1 29Y       0.252900
     31 H1          10.0100     1.4260     0.2730 h1         1 29Y       0.031867
     32 H2           8.2640     1.5620    -0.0030 h1         1 29Y       0.031867
     33 H3           8.9510     2.0170     1.5750 h1         1 29Y       0.031867
     34 H5           9.9710     0.0730     3.0330 h1         1 29Y       0.031867
     35 H6           9.8400    -1.5790     2.3820 h1         1 29Y       0.031867
     36 H7          10.9210    -0.4040     1.6060 h1         1 29Y       0.031867
     37 H8           7.4510    -1.3720     2.1770 h1         1 29Y       0.037700
     38 H9           7.3830     0.3040     2.7160 h1         1 29Y       0.037700
     39 H10          5.6380     1.6860     1.8760 ha         1 29Y       0.118000
     40 H11          3.7580     2.0620     0.3170 ha         1 29Y       0.113000
     41 H13          4.9250    -1.4540    -1.9240 ha         1 29Y       0.113000
     42 H14          6.8020    -1.8190    -0.3620 ha         1 29Y       0.118000
     43 H12          2.4990     1.5000    -1.6030 hc         1 29Y       0.101700
     44 H16          2.6290     0.9830    -4.0200 hc         1 29Y       0.087200
     45 H17          4.0030    -0.1850    -3.7300 hc         1 29Y       0.087200
     46 H15          2.5380    -1.5650    -2.2240 hc         1 29Y       0.091700
     47 H18          0.7780    -0.4010    -0.5030 hn         1 29Y       0.332500
     48 H19         -4.6640     0.2780    -2.9150 ha         1 29Y       0.135000
     49 H20         -6.7310     0.5170    -1.5740 ha         1 29Y       0.111000
     50 H21         -4.3780     0.1990     2.0660 ha         1 29Y       0.123000
     51 H22         -8.5560     0.7280    -0.3540 h4         1 29Y       0.156000
     52 H31        -10.0380     0.8890     1.7690 hn         1 29Y       0.373000
     53 H23         -6.3000     0.4220     3.3280 h4         1 29Y       0.038100
@<TRIPOS>BOND
     1     1     2 1   
     2     1    31 1   
     3     1    32 1   
     4     1    33 1   
     5     2     3 1   
     6     2     4 1   
     7     3    34 1   
     8     3    35 1   
     9     3    36 1   
    10     4     5 1   
    11     4    37 1   
    12     4    38 1   
    13     5     6 ar  
    14     5    10 ar  
    15     6     7 ar  
    16     6    39 1   
    17     7     8 ar  
    18     7    40 1   
    19     8     9 ar  
    20     8    11 1   
    21     9    10 ar  
    22     9    41 1   
    23    10    42 1   
    24    11    12 1   
    25    11    13 1   
    26    11    43 1   
    27    12    13 1   
    28    12    44 1   
    29    12    45 1   
    30    13    14 1   
    31    13    46 1   
    32    14    15 2   
    33    14    16 1   
    34    16    17 1   
    35    16    47 1   
    36    17    18 2   
    37    17    25 1   
    38    18    19 1   
    39    19    20 ar  
    40    19    24 ar  
    41    20    21 ar  
    42    20    48 1   
    43    21    22 ar  
    44    21    49 1   
    45    22    23 ar  
    46    22    26 1   
    47    23    24 ar  
    48    23    50 1   
    49    24    25 1   
    50    26    27 2   
    51    26    30 1   
    52    27    28 1   
    53    27    51 1   
    54    28    29 1   
    55    28    52 1   
    56    29    30 2   
    57    30    53 1   
@<TRIPOS>SUBSTRUCTURE
     1 29Y         1 TEMP              0 ****  ****    0 ROOT
