@<TRIPOS>MOLECULE
29Z
   55    59     1     0     0
SMALL
No Charge or Current Charge


@<TRIPOS>ATOM
      1 C1           7.0100     2.9530    -0.8590 c3         1 29Z       0.149600
      2 N2           7.7050     1.9760    -1.7300 n3         1 29Z      -0.714600
      3 C3           8.8580     2.5750    -2.4370 c3         1 29Z       0.149600
      4 C4           8.0660     0.7190    -1.0270 c3         1 29Z       0.210100
      5 C5           6.8630    -0.0360    -0.4660 ca         1 29Z      -0.080300
      6 C6           5.9500    -0.6610    -1.3340 ca         1 29Z      -0.097500
      7 C7           4.8420    -1.3580    -0.8220 ca         1 29Z      -0.106000
      8 C8           4.6280    -1.4440     0.5690 ca         1 29Z      -0.060300
      9 C9           5.5460    -0.8150     1.4370 ca         1 29Z      -0.106000
     10 C10          6.6540    -0.1180     0.9240 ca         1 29Z      -0.097500
     11 C11          3.4270    -2.1950     1.0910 cx         1 29Z      -0.039400
     12 C12          3.4520    -2.9760     2.3870 cx         1 29Z      -0.080400
     13 C13          2.6370    -1.7010     2.2900 cx         1 29Z      -0.248700
     14 C14          1.1330    -1.7890     2.2370 c          1 29Z       0.641100
     15 O15          0.5010    -2.5300     2.9750 o          1 29Z      -0.521100
     16 N16          0.5880    -0.9520     1.2950 ns         1 29Z      -0.411400
     17 C17         -0.7330    -0.7580     0.9530 cc         1 29Z       0.488800
     18 N18         -1.7350    -1.4200     1.5440 nd         1 29Z      -0.553100
     19 C19         -2.9240    -0.9930     0.9670 ca         1 29Z       0.128400
     20 C20         -4.1890    -1.4730     1.3360 ca         1 29Z      -0.063000
     21 C21         -5.3370    -0.9750     0.6870 ca         1 29Z      -0.095000
     22 C22         -5.2380     0.0070    -0.3380 cp         1 29Z      -0.033000
     23 C23         -3.9420     0.4720    -0.6870 ca         1 29Z      -0.055000
     24 C24         -2.8180    -0.0430    -0.0240 ca         1 29Z      -0.183000
     25 S25         -1.1520     0.4090    -0.3260 ss         1 29Z      -0.032200
     26 C26         -6.4600     0.5360    -1.0260 cp         1 29Z      -0.086000
     27 C27         -7.6060    -0.2720    -1.2300 ca         1 29Z      -0.064000
     28 C28         -8.7240     0.2770    -1.8810 ca         1 29Z      -0.163000
     29 C29         -8.6800     1.6120    -2.3130 ca         1 29Z       0.336900
     30 N30         -7.6010     2.4060    -2.1320 nb         1 29Z      -0.665000
     31 C31         -6.5240     1.8730    -1.5050 ca         1 29Z       0.344900
     32 H1           6.7300     3.8490    -1.4290 h1         1 29Z       0.031867
     33 H2           6.0900     2.5250    -0.4400 h1         1 29Z       0.031867
     34 H3           7.6560     3.2640    -0.0270 h1         1 29Z       0.031867
     35 H5           9.6350     2.8870    -1.7260 h1         1 29Z       0.031867
     36 H6           9.3010     1.8550    -3.1380 h1         1 29Z       0.031867
     37 H7           8.5450     3.4560    -3.0130 h1         1 29Z       0.031867
     38 H8           8.5870     0.0450    -1.7210 h1         1 29Z       0.038700
     39 H9           8.7690     0.9360    -0.2110 h1         1 29Z       0.038700
     40 H10          6.0990    -0.6010    -2.4100 ha         1 29Z       0.120500
     41 H11          4.1480    -1.8310    -1.5130 ha         1 29Z       0.112000
     42 H12          5.4080    -0.8600     2.5140 ha         1 29Z       0.112000
     43 H13          7.3490     0.3620     1.6090 ha         1 29Z       0.120500
     44 H14          2.8550    -2.6560     0.2870 hc         1 29Z       0.102700
     45 H15          2.9230    -3.9260     2.4100 hc         1 29Z       0.087200
     46 H16          4.3610    -2.9570     2.9830 hc         1 29Z       0.087200
     47 H17          3.0200    -0.8370     2.8250 hc         1 29Z       0.090700
     48 H18          1.2700    -0.4070     0.7890 hn         1 29Z       0.332500
     49 H19         -4.2810    -2.2210     2.1200 ha         1 29Z       0.138000
     50 H20         -6.3110    -1.3460     0.9940 ha         1 29Z       0.119000
     51 H21         -3.8090     1.2130    -1.4720 ha         1 29Z       0.127000
     52 H22         -7.6260    -1.3090    -0.9050 ha         1 29Z       0.122000
     53 H23         -9.6140    -0.3200    -2.0540 ha         1 29Z       0.125000
     54 H24         -9.5340     2.0600    -2.8200 h4         1 29Z       0.020100
     55 H25         -5.6810     2.5480    -1.3680 h4         1 29Z       0.020100
@<TRIPOS>BOND
     1     1     2 1   
     2     1    32 1   
     3     1    33 1   
     4     1    34 1   
     5     2     3 1   
     6     2     4 1   
     7     3    35 1   
     8     3    36 1   
     9     3    37 1   
    10     4     5 1   
    11     4    38 1   
    12     4    39 1   
    13     5     6 ar  
    14     5    10 ar  
    15     6     7 ar  
    16     6    40 1   
    17     7     8 ar  
    18     7    41 1   
    19     8     9 ar  
    20     8    11 1   
    21     9    10 ar  
    22     9    42 1   
    23    10    43 1   
    24    11    12 1   
    25    11    13 1   
    26    11    44 1   
    27    12    13 1   
    28    12    45 1   
    29    12    46 1   
    30    13    14 1   
    31    13    47 1   
    32    14    15 2   
    33    14    16 1   
    34    16    17 1   
    35    16    48 1   
    36    17    18 2   
    37    17    25 1   
    38    18    19 1   
    39    19    20 ar  
    40    19    24 ar  
    41    20    21 ar  
    42    20    49 1   
    43    21    22 ar  
    44    21    50 1   
    45    22    23 ar  
    46    22    26 1   
    47    23    24 ar  
    48    23    51 1   
    49    24    25 1   
    50    26    27 ar  
    51    26    31 ar  
    52    27    28 ar  
    53    27    52 1   
    54    28    29 ar  
    55    28    53 1   
    56    29    30 ar  
    57    29    54 1   
    58    30    31 ar  
    59    31    55 1   
@<TRIPOS>SUBSTRUCTURE
     1 29Z         1 TEMP              0 ****  ****    0 ROOT
