@<TRIPOS>MOLECULE
2A0
   41    40     1     0     0
SMALL
bcc


@<TRIPOS>ATOM
      1 N           -1.5760     1.7020    -0.1130 n8         1 2A0      -0.883800
      2 C1          -1.8010     0.2820     0.1460 c3         1 2A0       0.146500
      3 C2          -0.6250    -0.5120    -0.4100 c3         1 2A0       0.182800
      4 C3          -3.1230    -0.2610    -0.4010 c3         1 2A0      -0.114400
      5 C4          -4.3610     0.3950     0.1980 c3         1 2A0      -0.076400
      6 C5          -5.6630    -0.1620    -0.3640 c3         1 2A0      -0.076400
      7 C6          -6.8970     0.4890     0.2430 c3         1 2A0      -0.087100
      8 N2           0.6220    -0.0820     0.1840 n7         1 2A0      -0.774200
      9 C7           1.7960    -0.6230    -0.4670 c3         1 2A0       0.039500
     10 C            1.9280    -2.1550    -0.2990 c          1 2A0       0.926600
     11 O            1.4030    -2.6830     0.6990 o          1 2A0      -0.834800
     12 C9           3.0640     0.0220     0.1030 c3         1 2A0      -0.061400
     13 C10          3.1530     1.5350    -0.0730 c3         1 2A0      -0.081400
     14 C11          4.4870     2.1010     0.4000 c3         1 2A0      -0.077400
     15 C12          4.5710     3.6140     0.2560 c3         1 2A0      -0.086100
     16 OXT          2.6040    -2.7350    -1.1750 o          1 2A0      -0.834800
     17 H           -1.7410     1.8930    -1.0950 hn         1 2A0       0.322800
     18 H1          -1.8020     0.1540     1.2350 h1         1 2A0       0.070700
     19 H3          -0.7790    -1.5730    -0.2010 h1         1 2A0       0.031200
     20 H4          -0.6240    -0.4100    -1.5120 h1         1 2A0       0.031200
     21 H5          -3.1360    -0.1370    -1.4910 hc         1 2A0       0.044200
     22 H6          -3.1670    -1.3400    -0.2190 hc         1 2A0       0.044200
     23 H7          -4.3500     0.2650     1.2860 hc         1 2A0       0.031700
     24 H8          -4.3320     1.4750     0.0210 hc         1 2A0       0.031700
     25 H9          -5.6730    -0.0270    -1.4500 hc         1 2A0       0.036700
     26 H10         -5.6970    -1.2430    -0.1950 hc         1 2A0       0.036700
     27 H11         -7.8160     0.0780    -0.1780 hc         1 2A0       0.026033
     28 H12         -6.9320     0.3390     1.3240 hc         1 2A0       0.026033
     29 H13         -6.9040     1.5660     0.0630 hc         1 2A0       0.026033
     30 H14          0.6340     0.9290     0.1150 hn         1 2A0       0.331800
     31 H15          1.7790    -0.4170    -1.5540 h1         1 2A0      -0.001300
     32 H16          3.1390    -0.2250     1.1680 hc         1 2A0       0.047700
     33 H17          3.9270    -0.4390    -0.3860 hc         1 2A0       0.047700
     34 H18          3.0040     1.7910    -1.1280 hc         1 2A0       0.028700
     35 H19          2.3510     2.0350     0.4800 hc         1 2A0       0.028700
     36 H20          4.6450     1.8250     1.4480 hc         1 2A0       0.033200
     37 H21          5.3000     1.6310    -0.1620 hc         1 2A0       0.033200
     38 H22          5.5340     3.9980     0.5940 hc         1 2A0       0.019700
     39 H23          4.4400     3.9210    -0.7830 hc         1 2A0       0.019700
     40 H24          3.7940     4.1080     0.8440 hc         1 2A0       0.019700
     41 H2          -2.2480     2.2640     0.3950 hn         1 2A0       0.322800
@<TRIPOS>BOND
     1     1     2 1   
     2     1    17 1   
     3     1    41 1   
     4     2     3 1   
     5     2     4 1   
     6     2    18 1   
     7     3     8 1   
     8     3    19 1   
     9     3    20 1   
    10     4     5 1   
    11     4    21 1   
    12     4    22 1   
    13     5     6 1   
    14     5    23 1   
    15     5    24 1   
    16     6     7 1   
    17     6    25 1   
    18     6    26 1   
    19     7    27 1   
    20     7    28 1   
    21     7    29 1   
    22     8     9 1   
    23     8    30 1   
    24     9    10 1   
    25     9    12 1   
    26     9    31 1   
    27    10    11 1   
    28    10    16 1   
    29    12    13 1   
    30    12    32 1   
    31    12    33 1   
    32    13    14 1   
    33    13    34 1   
    34    13    35 1   
    35    14    15 1   
    36    14    36 1   
    37    14    37 1   
    38    15    38 1   
    39    15    39 1   
    40    15    40 1   
@<TRIPOS>SUBSTRUCTURE
     1 2A0         1 TEMP              0 ****  ****    0 ROOT
