@<TRIPOS>MOLECULE
2A1
   14    13     1     0     0
SMALL
abcg2


@<TRIPOS>ATOM
      1 C1          -0.9190     0.1640    -0.6440 c3         1 2A1       0.168600
      2 N1           1.0770     1.0810     0.4320 n8         1 2A1      -0.981200
      3 O1          -1.6240     0.0290     0.5670 oh         1 2A1      -0.639000
      4 C2           0.5750     0.0050    -0.4160 c3         1 2A1       0.167500
      5 C3           0.9250    -1.3390     0.2040 c3         1 2A1      -0.084100
      6 H1          -1.2300    -0.5900    -1.3800 h1         1 2A1       0.012200
      7 H1A         -1.1030     1.1460    -1.1060 h1         1 2A1       0.012200
      8 HN1          2.0840     1.0000     0.5060 hn         1 2A1       0.389000
      9 HN1A         0.9130     1.9720    -0.0220 hn         1 2A1       0.389000
     10 HO1         -2.5640     0.0690     0.3690 ho         1 2A1       0.435000
     11 H2           1.0170     0.0310    -1.4250 h1         1 2A1       0.008700
     12 H3           0.5050    -1.4380     1.2040 hc         1 2A1       0.040700
     13 H3A          0.5500    -2.1610    -0.4080 hc         1 2A1       0.040700
     14 H3B          2.0080    -1.4590     0.2820 hc         1 2A1       0.040700
@<TRIPOS>BOND
     1     1     3 1   
     2     1     4 1   
     3     1     6 1   
     4     1     7 1   
     5     2     4 1   
     6     2     8 1   
     7     2     9 1   
     8     3    10 1   
     9     4     5 1   
    10     4    11 1   
    11     5    12 1   
    12     5    13 1   
    13     5    14 1   
@<TRIPOS>SUBSTRUCTURE
     1 2A1         1 TEMP              0 ****  ****    0 ROOT
