@<TRIPOS>MOLECULE
2A1
   14    13     1     0     0
SMALL
No Charge or Current Charge


@<TRIPOS>ATOM
      1 C1          -0.9570     0.1400    -0.6440 c3         1 2A1       0.168600
      2 N1           1.1370     1.0810     0.4600 n8         1 2A1      -0.981200
      3 O1          -1.7280     0.0660     0.5690 oh         1 2A1      -0.639000
      4 C2           0.5810    -0.0060    -0.3820 c3         1 2A1       0.167500
      5 C3           0.9650    -1.3830     0.2030 c3         1 2A1      -0.084100
      6 H1          -1.2740    -0.6510    -1.3360 h1         1 2A1       0.012200
      7 H1A         -1.1410     1.1000    -1.1440 h1         1 2A1       0.012200
      8 HN1          2.1600     1.0700     0.3850 hn         1 2A1       0.389000
      9 HN1A         0.8740     1.9850     0.0510 hn         1 2A1       0.389000
     10 HO1         -2.6660     0.2200     0.3200 ho         1 2A1       0.435000
     11 H2           1.0740     0.0810    -1.3600 h1         1 2A1       0.008700
     12 H3           0.5270    -1.5260     1.1980 hc         1 2A1       0.040700
     13 H3A          0.6070    -2.1890    -0.4480 hc         1 2A1       0.040700
     14 H3B          2.0540    -1.4790     0.2900 hc         1 2A1       0.040700
@<TRIPOS>BOND
     1     1     3 1   
     2     1     4 1   
     3     1     6 1   
     4     1     7 1   
     5     2     4 1   
     6     2     8 1   
     7     2     9 1   
     8     3    10 1   
     9     4     5 1   
    10     4    11 1   
    11     5    12 1   
    12     5    13 1   
    13     5    14 1   
@<TRIPOS>SUBSTRUCTURE
     1 2A1         1 TEMP              0 ****  ****    0 ROOT
