@<TRIPOS>MOLECULE
2A2
   38    39     1     0     0
SMALL
No Charge or Current Charge


@<TRIPOS>ATOM
      1 C1          -5.9370     0.5190    -0.9240 c3         1 2A2       0.078600
      2 SD          -7.5550    -0.3330    -1.2140 sh         1 2A2      -0.445800
      3 C15         -4.9290    -0.3460    -0.1440 c3         1 2A2      -0.057400
      4 C16         -3.5770     0.3720     0.0960 c3         1 2A2      -0.155400
      5 C17         -2.5210    -0.4340     0.8810 c          1 2A2       0.609100
      6 O18         -2.7260    -1.6030     1.1850 o          1 2A2      -0.595100
      7 N19         -1.3270     0.2120     1.2790 n          1 2A2      -0.415800
      8 C20         -0.2590    -0.4960     2.0370 c6         1 2A2       0.091500
      9 C21          0.9960    -0.7500     1.1550 c6         1 2A2       0.177800
     10 N22          1.4850     0.5070     0.5040 nh         1 2A2      -0.793400
     11 C23          0.4110     1.2800    -0.1970 c6         1 2A2       0.177800
     12 C24         -0.8340     1.4990     0.7080 c6         1 2A2       0.091500
     13 C25          2.8330     0.6440     0.0960 ca         1 2A2       0.308000
     14 C26          3.4260     1.9210     0.0560 ca         1 2A2      -0.155000
     15 C27          4.7640     2.0810    -0.3440 ca         1 2A2      -0.074000
     16 C28          5.5210     0.9560    -0.7090 ca         1 2A2      -0.137000
     17 C29          4.9380    -0.3190    -0.6700 ca         1 2A2       0.154000
     18 C30          3.6030    -0.4770    -0.2690 ca         1 2A2      -0.170000
     19 Cl99         5.8840    -1.7280    -1.1290 cl         1 2A2      -0.209000
     20 H1          -5.5090     0.7890    -1.8990 h1         1 2A2       0.053700
     21 H1A         -6.1300     1.4470    -0.3690 h1         1 2A2       0.053700
     22 HSD         -8.1410     0.6870    -1.8900 hs         1 2A2       0.208800
     23 H15         -5.3700    -0.6230     0.8220 hc         1 2A2       0.073700
     24 H15A        -4.7550    -1.2770    -0.6980 hc         1 2A2       0.073700
     25 H16         -3.1220     0.6830    -0.8510 hc         1 2A2       0.056200
     26 H16A        -3.7150     1.3340     0.6030 hc         1 2A2       0.056200
     27 H20          0.0320     0.1220     2.8980 h1         1 2A2       0.064450
     28 H20A        -0.6210    -1.4530     2.4380 h1         1 2A2       0.064450
     29 H21          1.7820    -1.1830     1.7900 h1         1 2A2       0.048450
     30 H21A         0.7430    -1.4950     0.3860 h1         1 2A2       0.048450
     31 H23          0.7810     2.2640    -0.5200 h1         1 2A2       0.048450
     32 H23A         0.0990     0.7400    -1.1020 h1         1 2A2       0.048450
     33 H24         -1.6080     2.0220     0.1340 h1         1 2A2       0.064450
     34 H24A        -0.5540     2.1640     1.5370 h1         1 2A2       0.064450
     35 H26          2.8500     2.7940     0.3490 ha         1 2A2       0.116000
     36 H27          5.2120     3.0720    -0.3690 ha         1 2A2       0.116000
     37 H28          6.5570     1.0710    -1.0200 ha         1 2A2       0.132000
     38 H30          3.1690    -1.4710    -0.2580 ha         1 2A2       0.130000
@<TRIPOS>BOND
     1     1     2 1   
     2     1     3 1   
     3     1    20 1   
     4     1    21 1   
     5     2    22 1   
     6     3     4 1   
     7     3    23 1   
     8     3    24 1   
     9     4     5 1   
    10     4    25 1   
    11     4    26 1   
    12     5     6 2   
    13     5     7 1   
    14     7     8 1   
    15     7    12 1   
    16     8     9 1   
    17     8    27 1   
    18     8    28 1   
    19     9    10 1   
    20     9    29 1   
    21     9    30 1   
    22    10    11 1   
    23    10    13 1   
    24    11    12 1   
    25    11    31 1   
    26    11    32 1   
    27    12    33 1   
    28    12    34 1   
    29    13    14 ar  
    30    13    18 ar  
    31    14    15 ar  
    32    14    35 1   
    33    15    16 ar  
    34    15    36 1   
    35    16    17 ar  
    36    16    37 1   
    37    17    18 ar  
    38    17    19 1   
    39    18    38 1   
@<TRIPOS>SUBSTRUCTURE
     1 2A2         1 TEMP              0 ****  ****    0 ROOT
