@<TRIPOS>MOLECULE
2A2
   38    39     1     0     0
SMALL
bcc


@<TRIPOS>ATOM
      1 C1          -5.6960     0.5930    -0.9640 c3         1 2A2       0.030700
      2 SD          -7.2530    -0.2990    -1.2940 sh         1 2A2      -0.397900
      3 C15         -4.7770    -0.2990    -0.1430 c3         1 2A2      -0.057400
      4 C16         -3.4680     0.4190     0.1500 c3         1 2A2      -0.155400
      5 C17         -2.4920    -0.4330     0.9410 c          1 2A2       0.676100
      6 O18         -2.7740    -1.5780     1.2660 o          1 2A2      -0.595100
      7 N19         -1.3090     0.1330     1.2710 n          1 2A2      -0.482800
      8 C20         -0.2710    -0.6160     1.9480 c6         1 2A2       0.091500
      9 C21          0.9610    -0.7540     1.0670 c6         1 2A2       0.177800
     10 N22          1.4170     0.5490     0.6230 nh         1 2A2      -0.655000
     11 C23          0.3680     1.3160    -0.0350 c6         1 2A2       0.177800
     12 C24         -0.8500     1.4440     0.8630 c6         1 2A2       0.091500
     13 C25          2.7090     0.6630     0.1220 ca         1 2A2       0.169600
     14 C26          3.2510     1.9280    -0.1620 ca         1 2A2      -0.173000
     15 C27          4.5460     2.0560    -0.6260 ca         1 2A2      -0.092000
     16 C28          5.3620     0.9470    -0.8210 ca         1 2A2      -0.155000
     17 C29          4.8240    -0.2940    -0.5380 ca         1 2A2       0.062400
     18 C30          3.5230    -0.4570    -0.0850 ca         1 2A2      -0.188000
     19 CL99         5.7960    -1.7140    -0.7770 cl         1 2A2      -0.117400
     20 H1          -5.2260     0.8580    -1.9110 h1         1 2A2       0.053700
     21 H1A         -5.9190     1.5160    -0.4260 h1         1 2A2       0.053700
     22 HSD         -7.8640     0.6580    -2.0000 hs         1 2A2       0.208800
     23 H15         -5.2710    -0.5770     0.7900 hc         1 2A2       0.073700
     24 H15A        -4.5830    -1.2240    -0.6900 hc         1 2A2       0.073700
     25 H16         -3.0000     0.7260    -0.7910 hc         1 2A2       0.056200
     26 H16A        -3.6710     1.3460     0.6950 hc         1 2A2       0.056200
     27 H20          0.0010    -0.0920     2.8700 h1         1 2A2       0.064450
     28 H20A        -0.6380    -1.6010     2.2190 h1         1 2A2       0.064450
     29 H21          1.7400    -1.2290     1.6630 h1         1 2A2       0.048450
     30 H21A         0.7370    -1.4230     0.2230 h1         1 2A2       0.048450
     31 H23          0.7220     2.3160    -0.2730 h1         1 2A2       0.048450
     32 H23A         0.0740     0.8390    -0.9810 h1         1 2A2       0.048450
     33 H24         -1.6250     1.9940     0.3380 h1         1 2A2       0.064450
     34 H24A        -0.5860     2.0210     1.7550 h1         1 2A2       0.064450
     35 H26          2.6670     2.8230     0.0040 ha         1 2A2       0.134000
     36 H27          4.9390     3.0440    -0.8270 ha         1 2A2       0.134000
     37 H28          6.3780     1.0540    -1.1740 ha         1 2A2       0.150000
     38 H30          3.1560    -1.4580     0.0900 ha         1 2A2       0.148000
@<TRIPOS>BOND
     1     1     2 1   
     2     1     3 1   
     3     1    20 1   
     4     1    21 1   
     5     2    22 1   
     6     3     4 1   
     7     3    23 1   
     8     3    24 1   
     9     4     5 1   
    10     4    25 1   
    11     4    26 1   
    12     5     6 2   
    13     5     7 1   
    14     7     8 1   
    15     7    12 1   
    16     8     9 1   
    17     8    27 1   
    18     8    28 1   
    19     9    10 1   
    20     9    29 1   
    21     9    30 1   
    22    10    11 1   
    23    10    13 1   
    24    11    12 1   
    25    11    31 1   
    26    11    32 1   
    27    12    33 1   
    28    12    34 1   
    29    13    14 ar  
    30    13    18 ar  
    31    14    15 ar  
    32    14    35 1   
    33    15    16 ar  
    34    15    36 1   
    35    16    17 ar  
    36    16    37 1   
    37    17    18 ar  
    38    17    19 1   
    39    18    38 1   
@<TRIPOS>SUBSTRUCTURE
     1 2A2         1 TEMP              0 ****  ****    0 ROOT
