@<TRIPOS>MOLECULE
2A3
   14    13     1     0     0
SMALL
No Charge or Current Charge


@<TRIPOS>ATOM
      1 C1          -0.9620    -0.0750    -0.6460 c3         1 2A3       0.166600
      2 N1           1.0920    -1.1780     0.3060 n8         1 2A3      -0.990200
      3 O1          -1.6380    -0.2040     0.6210 oh         1 2A3      -0.666000
      4 C2           0.5890    -0.0180    -0.4620 c3         1 2A3       0.159500
      5 C3           1.0630     1.2850     0.2150 c3         1 2A3      -0.125100
      6 H1          -1.2100    -0.9300    -1.2900 h1         1 2A3       0.024700
      7 H1A         -1.2960     0.8330    -1.1680 h1         1 2A3       0.024700
      8 HN1          1.9420    -0.8960     0.8070 hn         1 2A3       0.396500
      9 HN1A         0.4150    -1.3460     1.0610 hn         1 2A3       0.396500
     10 HO1         -2.6010    -0.2410     0.4270 ho         1 2A3       0.442000
     11 H2           1.0520    -0.0500    -1.4590 h1         1 2A3       0.054700
     12 H3           0.6580     1.3770     1.2300 hc         1 2A3       0.039033
     13 H3A          2.1570     1.3190     0.2750 hc         1 2A3       0.039033
     14 H3B          0.7320     2.1570    -0.3640 hc         1 2A3       0.039033
@<TRIPOS>BOND
     1     1     3 1   
     2     1     4 1   
     3     1     6 1   
     4     1     7 1   
     5     2     4 1   
     6     2     8 1   
     7     2     9 1   
     8     3    10 1   
     9     4     5 1   
    10     4    11 1   
    11     5    12 1   
    12     5    13 1   
    13     5    14 1   
@<TRIPOS>SUBSTRUCTURE
     1 2A3         1 TEMP              0 ****  ****    0 ROOT
