@<TRIPOS>MOLECULE
2A3
   14    13     1     0     0
SMALL
abcg2


@<TRIPOS>ATOM
      1 C1          -0.9290    -0.0850    -0.6620 c3         1 2A3       0.166600
      2 N1           1.0020    -1.2090     0.3090 n8         1 2A3      -0.990200
      3 O1          -1.6180    -0.0550     0.5690 oh         1 2A3      -0.666000
      4 C2           0.5670    -0.0130    -0.4040 c3         1 2A3       0.159500
      5 C3           0.9730     1.2980     0.2700 c3         1 2A3      -0.125100
      6 H1          -1.1440    -1.0060    -1.2190 h1         1 2A3       0.024700
      7 H1A         -1.2180     0.7570    -1.3060 h1         1 2A3       0.024700
      8 HN1          2.0080    -1.1790     0.4220 hn         1 2A3       0.396500
      9 HN1A         0.6250    -1.1920     1.2500 hn         1 2A3       0.396500
     10 HO1         -2.5580    -0.1460     0.3900 ho         1 2A3       0.442000
     11 H2           1.0360    -0.0420    -1.3930 h1         1 2A3       0.054700
     12 H3           0.5340     1.3900     1.2650 hc         1 2A3       0.039033
     13 H3A          2.0570     1.3510     0.3790 hc         1 2A3       0.039033
     14 H3B          0.6590     2.1650    -0.3160 hc         1 2A3       0.039033
@<TRIPOS>BOND
     1     1     3 1   
     2     1     4 1   
     3     1     6 1   
     4     1     7 1   
     5     2     4 1   
     6     2     8 1   
     7     2     9 1   
     8     3    10 1   
     9     4     5 1   
    10     4    11 1   
    11     5    12 1   
    12     5    13 1   
    13     5    14 1   
@<TRIPOS>SUBSTRUCTURE
     1 2A3         1 TEMP              0 ****  ****    0 ROOT
