@<TRIPOS>MOLECULE
2A4
  120   126     1     0     0
SMALL
No Charge or Current Charge


@<TRIPOS>ATOM
      1 O8           5.8600     1.5270     3.9000 o          1 2A4      -0.590100
      2 C36          5.3960     1.0790     2.8580 c          1 2A4       0.611700
      3 N5           4.8780     1.9470     1.8660 n          1 2A4      -0.399800
      4 C41          4.9760     1.6340     0.4110 c6         1 2A4       0.092000
      5 C40          6.0830     2.4670    -0.2800 c6         1 2A4      -0.096900
      6 C39          5.8890     3.9850    -0.0350 c6         1 2A4      -0.013400
      7 C42          6.9880     4.8240    -0.7070 ca         1 2A4      -0.080300
      8 C47          6.6500     5.7510    -1.7140 ca         1 2A4      -0.108000
      9 C46          7.6440     6.5280    -2.3420 ca         1 2A4      -0.086300
     10 C48          7.2700     7.5210    -3.4350 c3         1 2A4       0.198100
     11 N6           7.1500     8.8920    -2.9050 n8         1 2A4      -0.999200
     12 C45          8.9890     6.3730    -1.9560 ca         1 2A4      -0.086000
     13 C44          9.3350     5.4510    -0.9540 ca         1 2A4      -0.114000
     14 C43          8.3400     4.6790    -0.3320 ca         1 2A4      -0.104000
     15 C38          5.7960     4.2570     1.4880 c6         1 2A4      -0.096900
     16 C37          4.6840     3.3980     2.1330 c6         1 2A4       0.092000
     17 C34          5.2680    -0.4210     2.6600 ca         1 2A4      -0.112600
     18 C33          6.2180    -1.2800     3.2480 ca         1 2A4      -0.091000
     19 C32          6.1090    -2.6720     3.1010 ca         1 2A4      -0.091000
     20 C31          5.0420    -3.2270     2.3760 ca         1 2A4      -0.117000
     21 C35          4.1820    -0.9930     1.9550 ca         1 2A4      -0.141000
     22 C30          4.0670    -2.3870     1.7960 ca         1 2A4      -0.032000
     23 N4           2.9460    -2.8750     1.0730 ns         1 2A4      -0.144000
     24 C29          2.5980    -4.1500     0.6350 c          1 2A4       0.599100
     25 O7           3.3130    -5.1440     0.7380 o          1 2A4      -0.540100
     26 C1           1.1800    -4.0590    -0.0830 c5         1 2A4       0.274000
     27 O6           1.1170    -2.9550    -1.0030 oh         1 2A4      -0.730000
     28 C2          -0.0020    -4.0760     0.9900 c5         1 2A4       0.183000
     29 C28         -0.6490    -2.6940     1.2680 c3         1 2A4      -0.101100
     30 C3           0.3510    -4.7400     2.3490 c3         1 2A4      -0.101100
     31 O3           0.9000    -5.2540    -0.8300 os         1 2A4      -0.427000
     32 C4          -0.5460    -5.3710    -0.9180 c5         1 2A4       0.333000
     33 O1          -1.0110    -4.9280     0.3940 os         1 2A4      -0.468000
     34 C5          -0.9320    -6.8940    -1.1470 c3         1 2A4       0.203000
     35 C7          -0.5600    -7.7790     0.0720 c3         1 2A4      -0.121600
     36 O2          -2.3530    -7.0180    -1.3330 oh         1 2A4      -0.720000
     37 C6          -0.2750    -7.4880    -2.4200 c3         1 2A4      -0.121600
     38 C8          -1.1420    -4.4790    -2.0910 c          1 2A4       0.594100
     39 O4          -0.6120    -4.2350    -3.1770 o          1 2A4      -0.582100
     40 N1          -2.3430    -3.9240    -1.6590 ns         1 2A4      -0.120000
     41 C9          -3.2640    -3.0340    -2.2730 ca         1 2A4      -0.017000
     42 C14         -4.3200    -2.5440    -1.4810 ca         1 2A4      -0.127000
     43 C13         -5.2730    -1.6410    -2.0020 ca         1 2A4      -0.114600
     44 C12         -5.1760    -1.2670    -3.3620 ca         1 2A4      -0.116000
     45 C11         -4.1310    -1.7550    -4.1610 ca         1 2A4      -0.094000
     46 C10         -3.1750    -2.6310    -3.6220 ca         1 2A4      -0.122000
     47 C15         -6.4060    -1.1530    -1.1170 c          1 2A4       0.613700
     48 O5          -6.8810    -1.8900    -0.2600 o          1 2A4      -0.595100
     49 N2          -6.9680     0.1220    -1.3660 n          1 2A4      -0.401800
     50 C20         -8.2630     0.5270    -0.7540 c6         1 2A4       0.093500
     51 C19         -8.0580     1.4830     0.4440 c6         1 2A4      -0.095900
     52 C18         -7.2350     2.7280     0.0220 c6         1 2A4      -0.015400
     53 C17         -5.8990     2.2720    -0.6190 c6         1 2A4      -0.095900
     54 C16         -6.1380     1.2860    -1.7890 c6         1 2A4       0.093500
     55 C21         -7.0120     3.6980     1.1930 ca         1 2A4      -0.080300
     56 C26         -7.5170     5.0130     1.1240 ca         1 2A4      -0.084000
     57 C25         -7.3210     5.9170     2.1870 ca         1 2A4      -0.086300
     58 C27         -7.8630     7.3380     2.0950 c3         1 2A4       0.197100
     59 N3          -9.2760     7.4070     2.5120 n8         1 2A4      -1.000200
     60 C24         -6.6140     5.4980     3.3300 ca         1 2A4      -0.111000
     61 C23         -6.1080     4.1900     3.4070 ca         1 2A4      -0.112000
     62 C22         -6.3050     3.2930     2.3440 ca         1 2A4      -0.105000
     63 H1           5.2000     0.5720     0.2460 h1         1 2A4       0.057950
     64 H2           4.0070     1.8430    -0.0650 h1         1 2A4       0.057950
     65 H3           7.0620     2.1440     0.0990 hc         1 2A4       0.055200
     66 H4           6.0820     2.2580    -1.3580 hc         1 2A4       0.055200
     67 H5           4.9220     4.2670    -0.4770 hc         1 2A4       0.047700
     68 H6           5.6110     5.8710    -2.0120 ha         1 2A4       0.104000
     69 H7           8.0360     7.5110    -4.2240 h1         1 2A4       0.034200
     70 H8           6.3110     7.2320    -3.8890 h1         1 2A4       0.034200
     71 H9           6.8050     9.5070    -3.6510 hn         1 2A4       0.397000
     72 H10          6.3970     8.9060    -2.2080 hn         1 2A4       0.397000
     73 H12          9.7650     6.9680    -2.4330 ha         1 2A4       0.132000
     74 H13         10.3760     5.3350    -0.6590 ha         1 2A4       0.113000
     75 H14          8.6230     3.9700     0.4420 ha         1 2A4       0.112000
     76 H15          6.7530     4.0330     1.9770 hc         1 2A4       0.055200
     77 H16          5.5930     5.3210     1.6680 hc         1 2A4       0.055200
     78 H17          3.7090     3.7030     1.7250 h1         1 2A4       0.057950
     79 H18          4.6480     3.5920     3.2150 h1         1 2A4       0.057950
     80 H19          7.0510    -0.8680     3.8150 ha         1 2A4       0.130000
     81 H20          6.8530    -3.3240     3.5540 ha         1 2A4       0.121000
     82 H21          4.9830    -4.3070     2.2920 ha         1 2A4       0.148000
     83 H22          3.4110    -0.3490     1.5380 ha         1 2A4       0.118000
     84 H23          2.2720    -2.1610     0.8260 hn         1 2A4       0.168000
     85 H24          1.5190    -3.2750    -1.8430 ho         1 2A4       0.539000
     86 H25         -1.0420    -2.2370     0.3520 hc         1 2A4       0.056533
     87 H26         -1.4860    -2.7820     1.9710 hc         1 2A4       0.056533
     88 H27          0.0770    -1.9960     1.7030 hc         1 2A4       0.056533
     89 H28          1.0500    -4.1300     2.9330 hc         1 2A4       0.056533
     90 H29         -0.5480    -4.8790     2.9620 hc         1 2A4       0.056533
     91 H30          0.8010    -5.7300     2.2050 hc         1 2A4       0.056533
     92 H31         -1.0980    -7.4610     0.9730 hc         1 2A4       0.053200
     93 H32         -0.8040    -8.8330    -0.1090 hc         1 2A4       0.053200
     94 H33          0.5150    -7.7170     0.2810 hc         1 2A4       0.053200
     95 H34         -2.5780    -7.9720    -1.2400 ho         1 2A4       0.515000
     96 H35          0.8190    -7.4340    -2.3580 hc         1 2A4       0.053200
     97 H36         -0.5480    -8.5420    -2.5520 hc         1 2A4       0.053200
     98 H37         -0.5900    -6.9510    -3.3220 hc         1 2A4       0.053200
     99 H38         -2.6040    -4.2110    -0.7230 hn         1 2A4       0.176000
    100 H39         -4.3950    -2.8560    -0.4410 ha         1 2A4       0.125000
    101 H40         -5.9210    -0.6120    -3.8090 ha         1 2A4       0.120000
    102 H41         -4.0660    -1.4600    -5.2060 ha         1 2A4       0.116000
    103 H42         -2.3850    -2.9950    -4.2720 ha         1 2A4       0.147000
    104 H43         -8.8720     1.0300    -1.5190 h1         1 2A4       0.058450
    105 H44         -8.8320    -0.3560    -0.4290 h1         1 2A4       0.058450
    106 H45         -9.0350     1.7960     0.8390 hc         1 2A4       0.053200
    107 H46         -7.5500     0.9430     1.2530 hc         1 2A4       0.053200
    108 H47         -7.8090     3.2520    -0.7550 hc         1 2A4       0.052700
    109 H48         -5.3410     3.1450    -0.9820 hc         1 2A4       0.053200
    110 H49         -5.2630     1.7860     0.1330 hc         1 2A4       0.053200
    111 H50         -5.1580     0.9630    -2.1630 h1         1 2A4       0.058450
    112 H51         -6.6470     1.8080    -2.6120 h1         1 2A4       0.058450
    113 H52         -8.0650     5.3390     0.2430 ha         1 2A4       0.129000
    114 H53         -7.2710     8.0040     2.7390 h1         1 2A4       0.035200
    115 H54         -7.7800     7.7020     1.0620 h1         1 2A4       0.035200
    116 H55         -9.3400     7.1170     3.4950 hn         1 2A4       0.397500
    117 H56         -9.5700     8.3910     2.5280 hn         1 2A4       0.397500
    118 H58         -6.4550     6.1860     4.1580 ha         1 2A4       0.108000
    119 H59         -5.5620     3.8710     4.2920 ha         1 2A4       0.112000
    120 H60         -5.9070     2.2850     2.4190 ha         1 2A4       0.112000
@<TRIPOS>BOND
     1     1     2 2   
     2     2     3 1   
     3     2    17 1   
     4     3     4 1   
     5     3    16 1   
     6     4     5 1   
     7     4    63 1   
     8     4    64 1   
     9     5     6 1   
    10     5    65 1   
    11     5    66 1   
    12     6     7 1   
    13     6    15 1   
    14     6    67 1   
    15     7     8 ar  
    16     7    14 ar  
    17     8     9 ar  
    18     8    68 1   
    19     9    10 1   
    20     9    12 ar  
    21    10    11 1   
    22    10    69 1   
    23    10    70 1   
    24    11    71 1   
    25    11    72 1   
    26    12    13 ar  
    27    12    73 1   
    28    13    14 ar  
    29    13    74 1   
    30    14    75 1   
    31    15    16 1   
    32    15    76 1   
    33    15    77 1   
    34    16    78 1   
    35    16    79 1   
    36    17    18 ar  
    37    17    21 ar  
    38    18    19 ar  
    39    18    80 1   
    40    19    20 ar  
    41    19    81 1   
    42    20    22 ar  
    43    20    82 1   
    44    21    22 ar  
    45    21    83 1   
    46    22    23 1   
    47    23    24 1   
    48    23    84 1   
    49    24    25 2   
    50    24    26 1   
    51    26    27 1   
    52    26    28 1   
    53    26    31 1   
    54    27    85 1   
    55    28    29 1   
    56    28    30 1   
    57    28    33 1   
    58    29    86 1   
    59    29    87 1   
    60    29    88 1   
    61    30    89 1   
    62    30    90 1   
    63    30    91 1   
    64    31    32 1   
    65    32    33 1   
    66    32    34 1   
    67    32    38 1   
    68    34    35 1   
    69    34    36 1   
    70    34    37 1   
    71    35    92 1   
    72    35    93 1   
    73    35    94 1   
    74    36    95 1   
    75    37    96 1   
    76    37    97 1   
    77    37    98 1   
    78    38    39 2   
    79    38    40 1   
    80    40    41 1   
    81    40    99 1   
    82    41    42 ar  
    83    41    46 ar  
    84    42    43 ar  
    85    42   100 1   
    86    43    44 ar  
    87    43    47 1   
    88    44    45 ar  
    89    44   101 1   
    90    45    46 ar  
    91    45   102 1   
    92    46   103 1   
    93    47    48 2   
    94    47    49 1   
    95    49    50 1   
    96    49    54 1   
    97    50    51 1   
    98    50   104 1   
    99    50   105 1   
   100    51    52 1   
   101    51   106 1   
   102    51   107 1   
   103    52    53 1   
   104    52    55 1   
   105    52   108 1   
   106    53    54 1   
   107    53   109 1   
   108    53   110 1   
   109    54   111 1   
   110    54   112 1   
   111    55    56 ar  
   112    55    62 ar  
   113    56    57 ar  
   114    56   113 1   
   115    57    58 1   
   116    57    60 ar  
   117    58    59 1   
   118    58   114 1   
   119    58   115 1   
   120    59   116 1   
   121    59   117 1   
   122    60    61 ar  
   123    60   118 1   
   124    61    62 ar  
   125    61   119 1   
   126    62   120 1   
@<TRIPOS>SUBSTRUCTURE
     1 2A4         1 TEMP              0 ****  ****    0 ROOT
