@<TRIPOS>MOLECULE
2A4
  120   126     1     0     0
SMALL
bcc


@<TRIPOS>ATOM
      1 O8           5.0450     2.1810     3.6300 o          1 2A4      -0.590100
      2 C36          4.8840     1.7590     2.4920 c          1 2A4       0.678700
      3 N5           4.7330     2.5600     1.4170 n          1 2A4      -0.466800
      4 C41          4.9780     2.1490     0.0410 c6         1 2A4       0.092000
      5 C40          6.3160     2.6910    -0.4460 c6         1 2A4      -0.096900
      6 C39          6.3830     4.2140    -0.3000 c6         1 2A4      -0.013400
      7 C42          7.7000     4.7780    -0.7680 ca         1 2A4      -0.080300
      8 C47          7.7400     5.6820    -1.8240 ca         1 2A4      -0.126000
      9 C46          8.9340     6.2330    -2.2840 ca         1 2A4      -0.086300
     10 C48          8.9160     7.1840    -3.4550 c3         1 2A4       0.198100
     11 N6          10.0350     8.1090    -3.4360 n8         1 2A4      -0.888800
     12 C45         10.1190     5.8690    -1.6540 ca         1 2A4      -0.104000
     13 C44         10.0980     4.9700    -0.5940 ca         1 2A4      -0.132000
     14 C43          8.9020     4.4260    -0.1530 ca         1 2A4      -0.122000
     15 C38          6.0590     4.6090     1.1450 c6         1 2A4      -0.096900
     16 C37          4.7320     4.0050     1.5830 c6         1 2A4       0.092000
     17 C34          4.7950     0.2800     2.2760 ca         1 2A4      -0.112600
     18 C33          5.8080    -0.5420     2.7610 ca         1 2A4      -0.109000
     19 C32          5.6830    -1.9150     2.6320 ca         1 2A4      -0.109000
     20 C31          4.5580    -2.4900     2.0550 ca         1 2A4      -0.135000
     21 C35          3.6680    -0.2820     1.6970 ca         1 2A4      -0.159000
     22 C30          3.5350    -1.6660     1.5860 ca         1 2A4       0.060600
     23 N4           2.3490    -2.1300     1.0080 ns         1 2A4      -0.470100
     24 C29          2.0240    -3.3860     0.6300 c          1 2A4       0.666100
     25 O7           2.7280    -4.3650     0.7440 o          1 2A4      -0.540100
     26 C1           0.5930    -3.4740     0.0610 c5         1 2A4       0.227600
     27 O6           0.2520    -2.3350    -0.6580 oh         1 2A4      -0.607800
     28 C2          -0.4980    -3.7240     1.1500 c5         1 2A4       0.159800
     29 C28         -1.2980    -2.4860     1.5240 c3         1 2A4      -0.101100
     30 C3           0.0490    -4.3830     2.4090 c3         1 2A4      -0.101100
     31 O3           0.5290    -4.6200    -0.7220 os         1 2A4      -0.380600
     32 C4          -0.8050    -5.0230    -0.7560 c5         1 2A4       0.286600
     33 O1          -1.3480    -4.6660     0.4810 os         1 2A4      -0.421600
     34 C5          -0.8750    -6.5550    -0.9650 c3         1 2A4       0.179800
     35 C7          -0.3480    -7.2850     0.2690 c3         1 2A4      -0.121600
     36 O2          -2.2570    -6.7950    -1.1500 oh         1 2A4      -0.597800
     37 C6          -0.0780    -7.0030    -2.1890 c3         1 2A4      -0.121600
     38 C8          -1.5430    -4.2690    -1.9000 c          1 2A4       0.661100
     39 O4          -1.0230    -4.1370    -2.9900 o          1 2A4      -0.582100
     40 N1          -2.7610    -3.8040    -1.5550 ns         1 2A4      -0.446100
     41 C9          -3.6640    -3.0470    -2.3040 ca         1 2A4       0.075600
     42 C14         -4.7990    -2.5960    -1.6290 ca         1 2A4      -0.145000
     43 C13         -5.7440    -1.8110    -2.2690 ca         1 2A4      -0.114600
     44 C12         -5.5820    -1.4900    -3.6140 ca         1 2A4      -0.134000
     45 C11         -4.4700    -1.9620    -4.2910 ca         1 2A4      -0.112000
     46 C10         -3.5060    -2.7320    -3.6540 ca         1 2A4      -0.140000
     47 C15         -6.9860    -1.4360    -1.5190 c          1 2A4       0.680700
     48 O5          -7.6410    -2.3200    -0.9810 o          1 2A4      -0.595100
     49 N2          -7.3510    -0.1390    -1.5170 n          1 2A4      -0.468800
     50 C20         -8.6080     0.2640    -0.9030 c6         1 2A4       0.093500
     51 C19         -8.3710     0.9720     0.4230 c6         1 2A4      -0.095900
     52 C18         -7.4450     2.1760     0.2290 c6         1 2A4      -0.015400
     53 C17         -6.1540     1.7220    -0.4590 c6         1 2A4      -0.095900
     54 C16         -6.4490     0.9790    -1.7580 c6         1 2A4       0.093500
     55 C21         -7.1770     2.9100     1.5180 ca         1 2A4      -0.080300
     56 C26         -7.5700     4.2370     1.6670 ca         1 2A4      -0.102000
     57 C25         -7.3400     4.9430     2.8460 ca         1 2A4      -0.086300
     58 C27         -7.7390     6.3910     2.9850 c3         1 2A4       0.197100
     59 N3          -8.9060     6.7230     2.1880 n8         1 2A4      -0.889800
     60 C24         -6.7030     4.2920     3.8980 ca         1 2A4      -0.129000
     61 C23         -6.2990     2.9700     3.7650 ca         1 2A4      -0.130000
     62 C22         -6.5350     2.2810     2.5840 ca         1 2A4      -0.123000
     63 H1           4.9590     1.0670    -0.0460 h1         1 2A4       0.057950
     64 H2           4.1680     2.5380    -0.5830 h1         1 2A4       0.057950
     65 H3           7.1230     2.2220     0.1260 hc         1 2A4       0.055200
     66 H4           6.4560     2.4060    -1.4920 hc         1 2A4       0.055200
     67 H5           5.5960     4.6360    -0.9360 hc         1 2A4       0.047700
     68 H6           6.8080     5.9710    -2.3010 ha         1 2A4       0.122000
     69 H7           8.9810     6.5990    -4.3780 h1         1 2A4       0.034200
     70 H8           7.9340     7.6760    -3.4860 h1         1 2A4       0.034200
     71 H9          10.0320     8.6550    -4.2880 hn         1 2A4       0.341800
     72 H10          9.9150     8.7700    -2.6790 hn         1 2A4       0.341800
     73 H12         11.0560     6.2960    -1.9880 ha         1 2A4       0.150000
     74 H13         11.0250     4.6960    -0.1060 ha         1 2A4       0.131000
     75 H14          8.9100     3.7300     0.6770 ha         1 2A4       0.130000
     76 H15          6.8500     4.2680     1.8200 hc         1 2A4       0.055200
     77 H16          6.0070     5.6960     1.2350 hc         1 2A4       0.055200
     78 H17          3.9210     4.4080     0.9680 h1         1 2A4       0.057950
     79 H18          4.5100     4.2530     2.6170 h1         1 2A4       0.057950
     80 H19          6.6890    -0.1140     3.2210 ha         1 2A4       0.148000
     81 H20          6.4730    -2.5610     2.9920 ha         1 2A4       0.139000
     82 H21          4.4890    -3.5620     1.9790 ha         1 2A4       0.166000
     83 H22          2.8740     0.3600     1.3280 ha         1 2A4       0.136000
     84 H23          1.6850    -1.4100     0.7610 hn         1 2A4       0.334500
     85 H24          0.8180    -2.2590    -1.4380 ho         1 2A4       0.440000
     86 H25         -1.7720    -2.0100     0.6700 hc         1 2A4       0.056533
     87 H26         -2.0730    -2.7610     2.2390 hc         1 2A4       0.056533
     88 H27         -0.6570    -1.7520     2.0140 hc         1 2A4       0.056533
     89 H28          0.6530    -3.6800     2.9850 hc         1 2A4       0.056533
     90 H29         -0.7840    -4.6890     3.0410 hc         1 2A4       0.056533
     91 H30          0.6520    -5.2630     2.1950 hc         1 2A4       0.056533
     92 H31         -0.9450    -7.0750     1.1550 hc         1 2A4       0.053200
     93 H32         -0.3750    -8.3620     0.0910 hc         1 2A4       0.053200
     94 H33          0.6870    -7.0140     0.4750 hc         1 2A4       0.053200
     95 H34         -2.3830    -7.7360    -1.3150 ho         1 2A4       0.416000
     96 H35          0.9820    -6.7780    -2.0870 hc         1 2A4       0.053200
     97 H36         -0.1690    -8.0870    -2.2890 hc         1 2A4       0.053200
     98 H37         -0.4390    -6.5520    -3.1100 hc         1 2A4       0.053200
     99 H38         -3.0430    -3.9900    -0.6040 hn         1 2A4       0.342500
    100 H39         -4.9380    -2.8550    -0.5850 ha         1 2A4       0.143000
    101 H40         -6.3200    -0.8900    -4.1310 ha         1 2A4       0.138000
    102 H41         -4.3430    -1.7280    -5.3400 ha         1 2A4       0.134000
    103 H42         -2.6510    -3.0790    -4.2110 ha         1 2A4       0.165000
    104 H43         -9.1130     0.9440    -1.5970 h1         1 2A4       0.058450
    105 H44         -9.2480    -0.6060    -0.7770 h1         1 2A4       0.058450
    106 H45         -9.3300     1.2950     0.8350 hc         1 2A4       0.053200
    107 H46         -7.9330     0.2670     1.1360 hc         1 2A4       0.053200
    108 H47         -7.9540     2.8690    -0.4520 hc         1 2A4       0.052700
    109 H48         -5.5210     2.5830    -0.6840 hc         1 2A4       0.053200
    110 H49         -5.5840     1.0670     0.2080 hc         1 2A4       0.053200
    111 H50         -5.5220     0.6310    -2.2060 h1         1 2A4       0.058450
    112 H51         -6.9210     1.6580    -2.4740 h1         1 2A4       0.058450
    113 H52         -8.0780     4.7360     0.8500 ha         1 2A4       0.147000
    114 H53         -7.8520     6.6180     4.0540 h1         1 2A4       0.035200
    115 H54         -6.9090     7.0140     2.6370 h1         1 2A4       0.035200
    116 H55         -9.7230     6.2720     2.5810 hn         1 2A4       0.342300
    117 H56         -9.0790     7.7180     2.2480 hn         1 2A4       0.342300
    118 H58         -6.5260     4.8180     4.8290 ha         1 2A4       0.126000
    119 H59         -5.8060     2.4720     4.5900 ha         1 2A4       0.130000
    120 H60         -6.2190     1.2480     2.5000 ha         1 2A4       0.130000
@<TRIPOS>BOND
     1     1     2 2   
     2     2     3 1   
     3     2    17 1   
     4     3     4 1   
     5     3    16 1   
     6     4     5 1   
     7     4    63 1   
     8     4    64 1   
     9     5     6 1   
    10     5    65 1   
    11     5    66 1   
    12     6     7 1   
    13     6    15 1   
    14     6    67 1   
    15     7     8 ar  
    16     7    14 ar  
    17     8     9 ar  
    18     8    68 1   
    19     9    10 1   
    20     9    12 ar  
    21    10    11 1   
    22    10    69 1   
    23    10    70 1   
    24    11    71 1   
    25    11    72 1   
    26    12    13 ar  
    27    12    73 1   
    28    13    14 ar  
    29    13    74 1   
    30    14    75 1   
    31    15    16 1   
    32    15    76 1   
    33    15    77 1   
    34    16    78 1   
    35    16    79 1   
    36    17    18 ar  
    37    17    21 ar  
    38    18    19 ar  
    39    18    80 1   
    40    19    20 ar  
    41    19    81 1   
    42    20    22 ar  
    43    20    82 1   
    44    21    22 ar  
    45    21    83 1   
    46    22    23 1   
    47    23    24 1   
    48    23    84 1   
    49    24    25 2   
    50    24    26 1   
    51    26    27 1   
    52    26    28 1   
    53    26    31 1   
    54    27    85 1   
    55    28    29 1   
    56    28    30 1   
    57    28    33 1   
    58    29    86 1   
    59    29    87 1   
    60    29    88 1   
    61    30    89 1   
    62    30    90 1   
    63    30    91 1   
    64    31    32 1   
    65    32    33 1   
    66    32    34 1   
    67    32    38 1   
    68    34    35 1   
    69    34    36 1   
    70    34    37 1   
    71    35    92 1   
    72    35    93 1   
    73    35    94 1   
    74    36    95 1   
    75    37    96 1   
    76    37    97 1   
    77    37    98 1   
    78    38    39 2   
    79    38    40 1   
    80    40    41 1   
    81    40    99 1   
    82    41    42 ar  
    83    41    46 ar  
    84    42    43 ar  
    85    42   100 1   
    86    43    44 ar  
    87    43    47 1   
    88    44    45 ar  
    89    44   101 1   
    90    45    46 ar  
    91    45   102 1   
    92    46   103 1   
    93    47    48 2   
    94    47    49 1   
    95    49    50 1   
    96    49    54 1   
    97    50    51 1   
    98    50   104 1   
    99    50   105 1   
   100    51    52 1   
   101    51   106 1   
   102    51   107 1   
   103    52    53 1   
   104    52    55 1   
   105    52   108 1   
   106    53    54 1   
   107    53   109 1   
   108    53   110 1   
   109    54   111 1   
   110    54   112 1   
   111    55    56 ar  
   112    55    62 ar  
   113    56    57 ar  
   114    56   113 1   
   115    57    58 1   
   116    57    60 ar  
   117    58    59 1   
   118    58   114 1   
   119    58   115 1   
   120    59   116 1   
   121    59   117 1   
   122    60    61 ar  
   123    60   118 1   
   124    61    62 ar  
   125    61   119 1   
   126    62   120 1   
@<TRIPOS>SUBSTRUCTURE
     1 2A4         1 TEMP              0 ****  ****    0 ROOT
