@<TRIPOS>MOLECULE
2A7
   18    18     1     0     0
SMALL
No Charge or Current Charge


@<TRIPOS>ATOM
      1 C7           3.3410     0.0730    -0.0230 c3         1 2A7       0.149900
      2 O3           2.2020     0.9520    -0.0160 os         1 2A7      -0.338100
      3 C6           0.9070     0.4800    -0.0650 ca         1 2A7       0.215100
      4 C5          -0.1300     1.4210    -0.0530 ca         1 2A7      -0.278500
      5 C3          -1.4630     1.0030    -0.1020 ca         1 2A7       0.211100
      6 O1          -2.4580     1.9280    -0.0890 oh         1 2A7      -0.531600
      7 C1          -1.7700    -0.3600    -0.1620 ca         1 2A7      -0.283000
      8 C2          -0.7390    -1.3040    -0.1750 ca         1 2A7       0.211100
      9 C4           0.6000    -0.8950    -0.1270 ca         1 2A7      -0.278500
     10 O8          -1.0460    -2.6260    -0.2340 oh         1 2A7      -0.531600
     11 H71C         4.2700     0.6550     0.0220 h1         1 2A7       0.041700
     12 H72C         3.3190    -0.6000     0.8430 h1         1 2A7       0.041700
     13 H73C         3.3620    -0.5300    -0.9390 h1         1 2A7       0.041700
     14 H5           0.1040     2.4810    -0.0060 ha         1 2A7       0.131500
     15 H4           1.3860    -1.6430    -0.1370 ha         1 2A7       0.131500
     16 H1          -3.3130     1.4510    -0.1280 ho         1 2A7       0.467000
     17 HA          -2.8040    -0.6940    -0.2000 ha         1 2A7       0.131000
     18 H8          -0.2080    -3.1340    -0.2340 ho         1 2A7       0.467000
@<TRIPOS>BOND
     1     1     2 1   
     2     1    11 1   
     3     1    12 1   
     4     1    13 1   
     5     2     3 1   
     6     3     4 ar  
     7     3     9 ar  
     8     4     5 ar  
     9     4    14 1   
    10     5     6 1   
    11     5     7 ar  
    12     6    16 1   
    13     7     8 ar  
    14     7    17 1   
    15     8     9 ar  
    16     8    10 1   
    17     9    15 1   
    18    10    18 1   
@<TRIPOS>SUBSTRUCTURE
     1 2A7         1 TEMP              0 ****  ****    0 ROOT
