@<TRIPOS>MOLECULE
2A7
   18    18     1     0     0
SMALL
abcg2


@<TRIPOS>ATOM
      1 C7           3.2610     0.0730    -0.0210 c3         1 2A7       0.149900
      2 O3           2.1650     0.9680    -0.0260 os         1 2A7      -0.338100
      3 C6           0.9170     0.4690    -0.0720 ca         1 2A7       0.215100
      4 C5          -0.1100     1.4110    -0.0580 ca         1 2A7      -0.278500
      5 C3          -1.4270     0.9760    -0.1030 ca         1 2A7       0.211100
      6 O1          -2.3890     1.9190    -0.0880 oh         1 2A7      -0.531600
      7 C1          -1.7360    -0.3810    -0.1630 ca         1 2A7      -0.283000
      8 C2          -0.6970    -1.3030    -0.1750 ca         1 2A7       0.211100
      9 C4           0.6350    -0.8940    -0.1300 ca         1 2A7      -0.278500
     10 O8          -1.0320    -2.6050    -0.2320 oh         1 2A7      -0.531600
     11 H71C         4.1580     0.6860     0.0210 h1         1 2A7       0.041700
     12 H72C         3.2470    -0.5860     0.8500 h1         1 2A7       0.041700
     13 H73C         3.2960    -0.5360    -0.9280 h1         1 2A7       0.041700
     14 H5           0.1190     2.4690    -0.0120 ha         1 2A7       0.131500
     15 H4           1.4210    -1.6380    -0.1390 ha         1 2A7       0.131500
     16 H1          -3.2610     1.5100    -0.1050 ho         1 2A7       0.467000
     17 HA          -2.7640    -0.7220    -0.2010 ha         1 2A7       0.131000
     18 H8          -0.2430    -3.1580    -0.2450 ho         1 2A7       0.467000
@<TRIPOS>BOND
     1     1     2 1   
     2     1    11 1   
     3     1    12 1   
     4     1    13 1   
     5     2     3 1   
     6     3     4 ar  
     7     3     9 ar  
     8     4     5 ar  
     9     4    14 1   
    10     5     6 1   
    11     5     7 ar  
    12     6    16 1   
    13     7     8 ar  
    14     7    17 1   
    15     8     9 ar  
    16     8    10 1   
    17     9    15 1   
    18    10    18 1   
@<TRIPOS>SUBSTRUCTURE
     1 2A7         1 TEMP              0 ****  ****    0 ROOT
