@<TRIPOS>MOLECULE
2A8
   42    45     1     0     0
SMALL
No Charge or Current Charge


@<TRIPOS>ATOM
      1 NAA          3.8910     0.6970     1.4820 nv         1 2A8      -1.062000
      2 CAC         -6.2740     0.0320    -0.7010 ca         1 2A8      -0.091000
      3 CAD         -5.3410     1.0720    -0.8250 ca         1 2A8      -0.121000
      4 CAE         -5.9590    -1.0990     0.0680 ca         1 2A8      -0.123000
      5 CAF          6.6640    -1.0800    -0.1610 ca         1 2A8      -0.067000
      6 CAG          6.1360    -1.3160    -1.4390 ca         1 2A8      -0.150000
      7 CAH          5.8900    -0.4180     0.8050 ca         1 2A8      -0.179000
      8 CAI         -4.0860     0.9860    -0.1890 ca         1 2A8      -0.044300
      9 CAJ         -4.7100    -1.1880     0.7030 ca         1 2A8      -0.064000
     10 CAK          0.4150     0.8100    -1.0990 ca         1 2A8      -0.225000
     11 CAL          1.2500    -0.7540     0.5330 ca         1 2A8      -0.187000
     12 CAM          4.8300    -0.9000    -1.7530 ca         1 2A8      -0.083000
     13 CAN         -0.8770     0.7670    -0.5320 ca         1 2A8       0.022700
     14 CAO         -0.0240    -0.8240     1.1110 ca         1 2A8      -0.018000
     15 CA0         -3.0920     2.1160    -0.3210 c3         1 2A8      -0.033100
     16 NAP          2.7240     0.1450    -1.1870 nu         1 2A8      -1.001000
     17 CAQ         -2.4460    -0.2780     1.2970 c          1 2A8       0.602300
     18 CA1         -1.9090     1.6840    -1.1930 c3         1 2A8      -0.036100
     19 CAR          4.5830     0.0030     0.5090 ca         1 2A8       0.298000
     20 CAS          1.4760     0.0690    -0.5710 ca         1 2A8       0.361000
     21 CAT         -3.7570    -0.1550     0.5650 ca         1 2A8      -0.148600
     22 CAU         -1.1110    -0.0780     0.5940 ca         1 2A8      -0.216600
     23 CAV          4.0280    -0.2540    -0.7920 ca         1 2A8       0.192000
     24 HAA1         4.3890     1.0890     2.2770 hn         1 2A8       0.454500
     25 HAA2         3.0130     1.1330     1.2090 hn         1 2A8       0.454500
     26 HAC         -7.2420     0.1040    -1.1930 ha         1 2A8       0.113000
     27 HAD         -5.5960     1.9480    -1.4170 ha         1 2A8       0.111000
     28 HAE         -6.6830    -1.9040     0.1740 ha         1 2A8       0.116000
     29 HAJ         -4.4770    -2.0670     1.3020 ha         1 2A8       0.128000
     30 HAF          7.6760    -1.4020     0.0780 ha         1 2A8       0.113000
     31 HAG          6.7390    -1.8230    -2.1900 ha         1 2A8       0.118000
     32 HAH          6.3140    -0.2260     1.7870 ha         1 2A8       0.115000
     33 HAM          4.4350    -1.0920    -2.7470 ha         1 2A8       0.115000
     34 HA01        -3.5690     2.9890    -0.7840 hc         1 2A8       0.054700
     35 HA02        -2.7340     2.4500     0.6610 hc         1 2A8       0.054700
     36 HAK          0.5990     1.4450    -1.9610 ha         1 2A8       0.106000
     37 HAL          2.0570    -1.3570     0.9390 ha         1 2A8       0.133000
     38 HAO         -0.1670    -1.4870     1.9630 ha         1 2A8       0.132000
     39 HA11        -1.4070     2.6010    -1.5260 hc         1 2A8       0.053700
     40 HA12        -2.2910     1.2100    -2.1050 hc         1 2A8       0.053700
     41 HAP          2.6620     0.4430    -2.1610 hn         1 2A8       0.489000
     42 OAB         -2.4650    -0.5790     2.4860 o          1 2A8      -0.542100
@<TRIPOS>BOND
     1     1    19 1   
     2     1    24 1   
     3     1    25 1   
     4     2     3 ar  
     5     2     4 ar  
     6     2    26 1   
     7     3     8 ar  
     8     3    27 1   
     9     4     9 ar  
    10     4    28 1   
    11     5     6 ar  
    12     5     7 ar  
    13     5    30 1   
    14     6    12 ar  
    15     6    31 1   
    16     7    19 ar  
    17     7    32 1   
    18     8    15 1   
    19     8    21 ar  
    20     9    21 ar  
    21     9    29 1   
    22    10    13 ar  
    23    10    20 ar  
    24    10    36 1   
    25    11    14 ar  
    26    11    20 ar  
    27    11    37 1   
    28    12    23 ar  
    29    12    33 1   
    30    13    18 1   
    31    13    22 ar  
    32    14    22 ar  
    33    14    38 1   
    34    15    18 1   
    35    15    34 1   
    36    15    35 1   
    37    16    20 1   
    38    16    23 1   
    39    16    41 1   
    40    17    21 1   
    41    17    22 1   
    42    17    42 2   
    43    18    39 1   
    44    18    40 1   
    45    19    23 ar  
@<TRIPOS>SUBSTRUCTURE
     1 2A8         1 TEMP              0 ****  ****    0 ROOT
