@<TRIPOS>MOLECULE
2A8
   42    45     1     0     0
SMALL
abcg2


@<TRIPOS>ATOM
      1 NAA          4.0150     1.1290     1.3520 nv         1 2A8      -1.062000
      2 CAC         -6.2430     0.0150    -0.5550 ca         1 2A8      -0.091000
      3 CAD         -5.3360     1.0610    -0.6310 ca         1 2A8      -0.121000
      4 CAE         -5.8600    -1.1900     0.0180 ca         1 2A8      -0.123000
      5 CAF          6.3210    -1.4030    -0.0020 ca         1 2A8      -0.067000
      6 CAG          5.7230    -1.7050    -1.2200 ca         1 2A8      -0.150000
      7 CAH          5.7610    -0.4630     0.8460 ca         1 2A8      -0.179000
      8 CAI         -4.0360     0.9250    -0.1520 ca         1 2A8      -0.044300
      9 CAJ         -4.5800    -1.3280     0.5260 ca         1 2A8      -0.064000
     10 CAK          0.4440     1.0000    -1.0810 ca         1 2A8      -0.225000
     11 CAL          1.3570    -0.5950     0.4620 ca         1 2A8      -0.187000
     12 CAM          4.5450    -1.0580    -1.5650 ca         1 2A8      -0.083000
     13 CAN         -0.8390     0.8030    -0.5950 ca         1 2A8       0.022700
     14 CAO          0.0900    -0.7810     0.9580 ca         1 2A8      -0.018000
     15 CA0         -3.0570     2.0470    -0.3010 c3         1 2A8      -0.033100
     16 NAP          2.7940     0.5640    -1.1110 nu         1 2A8      -1.001000
     17 CAQ         -2.3260    -0.5110     1.0780 c          1 2A8       0.602300
     18 CA1         -1.9150     1.6480    -1.2280 c3         1 2A8      -0.036100
     19 CAR          4.5840     0.2120     0.5000 ca         1 2A8       0.298000
     20 CAS          1.5590     0.3150    -0.5860 ca         1 2A8       0.361000
     21 CAT         -3.6560    -0.2840     0.4340 ca         1 2A8      -0.148600
     22 CAU         -1.0420    -0.1180     0.4540 ca         1 2A8      -0.216600
     23 CAV          3.9730    -0.1110    -0.7250 ca         1 2A8       0.192000
     24 HAA1         4.6440     1.5440     2.0210 hn         1 2A8       0.454500
     25 HAA2         3.4230     1.8190     0.9160 hn         1 2A8       0.454500
     26 HAC         -7.2460     0.1410    -0.9440 ha         1 2A8       0.113000
     27 HAD         -5.6390     2.0020    -1.0730 ha         1 2A8       0.111000
     28 HAE         -6.5580    -2.0140     0.0780 ha         1 2A8       0.116000
     29 HAJ         -4.2870    -2.2620     0.9870 ha         1 2A8       0.128000
     30 HAF          7.2370    -1.8990     0.2910 ha         1 2A8       0.113000
     31 HAG          6.1610    -2.4360    -1.8850 ha         1 2A8       0.118000
     32 HAH          6.2440    -0.2290     1.7880 ha         1 2A8       0.115000
     33 HAM          4.0550    -1.2850    -2.5040 ha         1 2A8       0.115000
     34 HA01        -3.5660     2.9160    -0.7200 hc         1 2A8       0.054700
     35 HA02        -2.6590     2.3580     0.6690 hc         1 2A8       0.054700
     36 HAK          0.5930     1.7280    -1.8720 ha         1 2A8       0.106000
     37 HAL          2.1830    -1.1580     0.8740 ha         1 2A8       0.133000
     38 HAO         -0.0390    -1.4940     1.7620 ha         1 2A8       0.132000
     39 HA11        -1.4450     2.5510    -1.6190 hc         1 2A8       0.053700
     40 HA12        -2.3220     1.1230    -2.0990 hc         1 2A8       0.053700
     41 HAP          2.8220     1.0750    -1.9790 hn         1 2A8       0.489000
     42 OAB         -2.3220    -1.1380     2.1260 o          1 2A8      -0.542100
@<TRIPOS>BOND
     1     1    19 1   
     2     1    24 1   
     3     1    25 1   
     4     2     3 ar  
     5     2     4 ar  
     6     2    26 1   
     7     3     8 ar  
     8     3    27 1   
     9     4     9 ar  
    10     4    28 1   
    11     5     6 ar  
    12     5     7 ar  
    13     5    30 1   
    14     6    12 ar  
    15     6    31 1   
    16     7    19 ar  
    17     7    32 1   
    18     8    15 1   
    19     8    21 ar  
    20     9    21 ar  
    21     9    29 1   
    22    10    13 ar  
    23    10    20 ar  
    24    10    36 1   
    25    11    14 ar  
    26    11    20 ar  
    27    11    37 1   
    28    12    23 ar  
    29    12    33 1   
    30    13    18 1   
    31    13    22 ar  
    32    14    22 ar  
    33    14    38 1   
    34    15    18 1   
    35    15    34 1   
    36    15    35 1   
    37    16    20 1   
    38    16    23 1   
    39    16    41 1   
    40    17    21 1   
    41    17    22 1   
    42    17    42 2   
    43    18    39 1   
    44    18    40 1   
    45    19    23 ar  
@<TRIPOS>SUBSTRUCTURE
     1 2A8         1 TEMP              0 ****  ****    0 ROOT
