@<TRIPOS>MOLECULE
2A9
   21    21     1     0     0
SMALL
bcc


@<TRIPOS>ATOM
      1 O7           3.5800     0.0510    -0.8460 oh         1 2A9      -0.590800
      2 C11          3.0490     0.2060     0.4570 c3         1 2A9       0.189700
      3 C6           1.5520     0.1940     0.3630 ca         1 2A9      -0.084300
      4 C1           0.8680    -1.0200     0.2690 ca         1 2A9      -0.120000
      5 C2          -0.5080    -1.0560     0.1420 ca         1 2A9       0.116100
      6 C3          -1.2320     0.1490     0.0990 ca         1 2A9       0.053100
      7 O8          -1.1320    -2.2490     0.0630 oh         1 2A9      -0.496100
      8 C5           0.8280     1.3740     0.3180 ca         1 2A9      -0.112000
      9 C4          -0.5590     1.3560     0.1880 ca         1 2A9      -0.175000
     10 O6          -2.5690     0.0010    -0.0230 os         1 2A9      -0.344900
     11 C10         -3.3730     1.1610    -0.0960 c3         1 2A9       0.134700
     12 H7           4.5390     0.0180    -0.7690 ho         1 2A9       0.400000
     13 H111         3.3830    -0.6020     1.1180 h1         1 2A9       0.023700
     14 H112         3.3760     1.1480     0.9120 h1         1 2A9       0.023700
     15 H1           1.4140    -1.9560     0.3050 ha         1 2A9       0.149000
     16 H5           1.3380     2.3260     0.3910 ha         1 2A9       0.132000
     17 H8          -2.0860    -2.1210    -0.0070 ho         1 2A9       0.441000
     18 H4          -1.1010     2.2930     0.1580 ha         1 2A9       0.135000
     19 H101        -3.2860     1.7720     0.8060 h1         1 2A9       0.041700
     20 H102        -3.1190     1.7750    -0.9640 h1         1 2A9       0.041700
     21 H103        -4.4010     0.8210    -0.1930 h1         1 2A9       0.041700
@<TRIPOS>BOND
     1     1     2 1   
     2     1    12 1   
     3     2     3 1   
     4     2    13 1   
     5     2    14 1   
     6     3     4 ar  
     7     3     8 ar  
     8     4     5 ar  
     9     4    15 1   
    10     5     6 ar  
    11     5     7 1   
    12     6     9 ar  
    13     6    10 1   
    14     7    17 1   
    15     8     9 ar  
    16     8    16 1   
    17     9    18 1   
    18    10    11 1   
    19    11    19 1   
    20    11    20 1   
    21    11    21 1   
@<TRIPOS>SUBSTRUCTURE
     1 2A9         1 TEMP              0 ****  ****    0 ROOT
