@<TRIPOS>MOLECULE
2A9
   21    21     1     0     0
SMALL
No Charge or Current Charge


@<TRIPOS>ATOM
      1 O7           3.7030     0.1200    -0.8370 oh         1 2A9      -0.653000
      2 C11          3.0930     0.1900     0.4560 c3         1 2A9       0.212900
      3 C6           1.5750     0.1600     0.3280 ca         1 2A9      -0.084300
      4 C1           0.8920    -1.0700     0.2670 ca         1 2A9      -0.102000
      5 C2          -0.5070    -1.0980     0.1520 ca         1 2A9       0.116100
      6 C3          -1.2440     0.1030     0.0960 ca         1 2A9       0.053100
      7 O8          -1.1620    -2.2950     0.0940 oh         1 2A9      -0.535100
      8 C5           0.8410     1.3610     0.2710 ca         1 2A9      -0.094000
      9 C4          -0.5610     1.3380     0.1560 ca         1 2A9      -0.157000
     10 O6          -2.6220     0.0210    -0.0170 os         1 2A9      -0.368100
     11 C10         -3.4590     1.1910    -0.0820 c3         1 2A9       0.157900
     12 H7           4.6740     0.1440    -0.6910 ho         1 2A9       0.439000
     13 H111         3.4200    -0.6550     1.0780 h1         1 2A9       0.023700
     14 H112         3.3960     1.1120     0.9700 h1         1 2A9       0.023700
     15 H1           1.4460    -2.0050     0.3070 ha         1 2A9       0.131000
     16 H5           1.3590     2.3170     0.3140 ha         1 2A9       0.114000
     17 H8          -2.1200    -2.0840     0.0160 ho         1 2A9       0.480000
     18 H4          -1.0950     2.2830     0.1140 ha         1 2A9       0.117000
     19 H101        -3.3490     1.8000     0.8240 h1         1 2A9       0.041700
     20 H102        -3.2030     1.8060    -0.9540 h1         1 2A9       0.041700
     21 H103        -4.5140     0.9010    -0.1690 h1         1 2A9       0.041700
@<TRIPOS>BOND
     1     1     2 1   
     2     1    12 1   
     3     2     3 1   
     4     2    13 1   
     5     2    14 1   
     6     3     4 ar  
     7     3     8 ar  
     8     4     5 ar  
     9     4    15 1   
    10     5     6 ar  
    11     5     7 1   
    12     6     9 ar  
    13     6    10 1   
    14     7    17 1   
    15     8     9 ar  
    16     8    16 1   
    17     9    18 1   
    18    10    11 1   
    19    11    19 1   
    20    11    20 1   
    21    11    21 1   
@<TRIPOS>SUBSTRUCTURE
     1 2A9         1 TEMP              0 ****  ****    0 ROOT
