@<TRIPOS>MOLECULE
2AA
   73    76     1     0     0
SMALL
abcg2


@<TRIPOS>ATOM
      1 C13         -0.5190     4.6090     3.3790 c3         1 2AA       0.176600
      2 N5          -1.1700     4.4160     2.1010 nh         1 2AA      -0.771400
      3 C12         -0.9430     5.5510     1.2190 c3         1 2AA       0.176600
      4 C11         -0.9880     3.1620     1.4920 ca         1 2AA       0.221000
      5 C10          0.0950     2.3580     1.7540 ca         1 2AA      -0.136000
      6 C9           0.2580     1.1360     1.0840 ca         1 2AA      -0.042000
      7 C8          -0.6450     0.7080     0.1520 ca         1 2AA      -0.111000
      8 C7          -1.8110     1.4620    -0.1050 ca         1 2AA       0.050000
      9 C6          -1.9930     2.6960     0.5860 ca         1 2AA      -0.064000
     10 C5          -3.1920     3.4220     0.4030 ca         1 2AA      -0.049000
     11 C4          -4.1620     2.9890    -0.4560 ca         1 2AA      -0.173000
     12 C3          -3.9900     1.7880    -1.1640 ca         1 2AA      -0.024000
     13 C2          -2.8530     1.0460    -0.9880 ca         1 2AA      -0.272500
     14 S1          -2.7730    -0.5160    -1.8460 sy         1 2AA       1.133600
     15 O3          -4.0100    -0.6510    -2.6020 o          1 2AA      -0.562000
     16 O4          -1.5090    -0.6290    -2.5540 o          1 2AA      -0.562000
     17 N4          -2.7870    -1.6920    -0.7010 n7         1 2AA      -0.844300
     18 C1          -3.9200    -1.7510     0.2180 c3         1 2AA       0.175800
     19 C15         -3.9090    -3.0350     1.0230 c3         1 2AA       0.238600
     20 O2          -2.8910    -3.0390     2.0050 os         1 2AA      -0.604400
     21 P2          -1.5420    -3.9680     1.8960 p5         1 2AA       1.458800
     22 O1          -0.9860    -4.0420     3.2800 o          1 2AA      -0.835500
     23 O9          -1.8260    -5.1900     1.0850 o          1 2AA      -0.835500
     24 O8          -0.6260    -2.9220     1.0000 os         1 2AA      -0.720800
     25 P1           1.0220    -2.9320     1.0050 p5         1 2AA       1.451800
     26 O7           1.5450    -1.9600     2.0130 o          1 2AA      -0.842500
     27 O6           1.5240    -4.3430     0.9940 o          1 2AA      -0.842500
     28 O5           1.1230    -2.2950    -0.5050 os         1 2AA      -0.581400
     29 C14          2.4080    -2.1050    -1.0600 c3         1 2AA       0.215600
     30 C16          2.2730    -1.1890    -2.2590 c5         1 2AA       0.160300
     31 O12          1.8930     0.1210    -1.8500 os         1 2AA      -0.408000
     32 C17          3.5670    -1.0280    -3.0540 c5         1 2AA       0.104300
     33 O11          3.2400    -0.8500    -4.4110 oh         1 2AA      -0.710000
     34 C18          4.1550     0.2580    -2.4600 c5         1 2AA       0.070300
     35 O10          4.9730     0.9780    -3.3430 oh         1 2AA      -0.729000
     36 C19          2.8770     1.0500    -2.1840 c5         1 2AA       0.340700
     37 N3           2.9520     2.0940    -1.1770 n          1 2AA      -0.305000
     38 C20          2.4440     3.3130    -1.4880 cc         1 2AA       0.046600
     39 C21          2.4280     4.3340    -0.6110 cd         1 2AA      -0.509600
     40 C22          2.9750     4.0620     0.6790 cd         1 2AA       0.780500
     41 N2           3.0110     5.0270     1.5980 nv         1 2AA      -1.053200
     42 N1           3.4490     2.8770     1.0000 nc         1 2AA      -0.770100
     43 C23          3.4380     1.8510     0.1230 c          1 2AA       0.710400
     44 O13          3.8490     0.7400     0.4240 o          1 2AA      -0.504000
     45 H131        -0.9200     5.5090     3.8460 h1         1 2AA       0.023367
     46 H132        -0.7220     3.7680     4.0410 h1         1 2AA       0.023367
     47 H133         0.5700     4.7370     3.3050 h1         1 2AA       0.023367
     48 H121         0.1250     5.7140     1.0250 h1         1 2AA       0.023367
     49 H122        -1.4370     5.4120     0.2590 h1         1 2AA       0.023367
     50 H123        -1.3460     6.4560     1.6750 h1         1 2AA       0.023367
     51 H10          0.8570     2.6710     2.4550 ha         1 2AA       0.115000
     52 H9           1.1220     0.5170     1.2820 ha         1 2AA       0.188000
     53 H8          -0.4100    -0.1910    -0.3920 ha         1 2AA       0.175000
     54 H5          -3.3530     4.3240     0.9770 ha         1 2AA       0.107000
     55 H4          -5.0770     3.5520    -0.5790 ha         1 2AA       0.092000
     56 H3          -4.7730     1.4540    -1.8290 ha         1 2AA       0.128000
     57 HN4         -1.8800    -1.8390    -0.2600 hn         1 2AA       0.558000
     58 H1'1        -3.9450    -0.8900     0.8960 h1         1 2AA       0.030700
     59 H1'2        -4.8410    -1.7370    -0.3660 h1         1 2AA       0.030700
     60 H91         -4.8700    -3.1070     1.5380 h1         1 2AA       0.025700
     61 H92         -3.8280    -3.8960     0.3550 h1         1 2AA       0.025700
     62 H141         3.0990    -1.6680    -0.3340 h1         1 2AA       0.028200
     63 H142         2.8250    -3.0620    -1.3970 h1         1 2AA       0.028200
     64 H2           1.4900    -1.5930    -2.9100 h1         1 2AA       0.113700
     65 H7           4.2440    -1.8810    -2.9170 h1         1 2AA       0.054700
     66 HO4          3.9860    -0.4080    -4.8330 ho         1 2AA       0.494000
     67 H6           4.6730     0.0170    -1.5320 h1         1 2AA       0.097700
     68 HO3          5.8810     0.6830    -3.2300 ho         1 2AA       0.502000
     69 H11          2.6080     1.5740    -3.1110 h2         1 2AA       0.049700
     70 H15          2.0550     3.4270    -2.4910 h4         1 2AA       0.197000
     71 H16          2.0270     5.2980    -0.8810 ha         1 2AA       0.187000
     72 HN21         2.7050     5.9620     1.3930 hn         1 2AA       0.489500
     73 HN22         3.4130     4.8490     2.5030 hn         1 2AA       0.489500
@<TRIPOS>BOND
     1     1     2 1   
     2     1    45 1   
     3     1    46 1   
     4     1    47 1   
     5     2     3 1   
     6     2     4 1   
     7     3    48 1   
     8     3    49 1   
     9     3    50 1   
    10     4     5 ar  
    11     4     9 ar  
    12     5     6 ar  
    13     5    51 1   
    14     6     7 ar  
    15     6    52 1   
    16     7     8 ar  
    17     7    53 1   
    18     8     9 ar  
    19     8    13 ar  
    20     9    10 ar  
    21    10    11 ar  
    22    10    54 1   
    23    11    12 ar  
    24    11    55 1   
    25    12    13 ar  
    26    12    56 1   
    27    13    14 1   
    28    14    15 2   
    29    14    16 2   
    30    14    17 1   
    31    17    18 1   
    32    17    57 1   
    33    18    19 1   
    34    18    58 1   
    35    18    59 1   
    36    19    20 1   
    37    19    60 1   
    38    19    61 1   
    39    20    21 1   
    40    21    22 1   
    41    21    23 1   
    42    21    24 1   
    43    24    25 1   
    44    25    26 1   
    45    25    27 1   
    46    25    28 1   
    47    28    29 1   
    48    29    30 1   
    49    29    62 1   
    50    29    63 1   
    51    30    31 1   
    52    30    32 1   
    53    30    64 1   
    54    31    36 1   
    55    32    33 1   
    56    32    34 1   
    57    32    65 1   
    58    33    66 1   
    59    34    35 1   
    60    34    36 1   
    61    34    67 1   
    62    35    68 1   
    63    36    37 1   
    64    36    69 1   
    65    37    38 1   
    66    37    43 1   
    67    38    39 2   
    68    38    70 1   
    69    39    40 1   
    70    39    71 1   
    71    40    41 1   
    72    40    42 2   
    73    41    72 1   
    74    41    73 1   
    75    42    43 1   
    76    43    44 2   
@<TRIPOS>SUBSTRUCTURE
     1 2AA         1 TEMP              0 ****  ****    0 ROOT
