@<TRIPOS>MOLECULE
2AA
   73    76     1     0     0
SMALL
No Charge or Current Charge


@<TRIPOS>ATOM
      1 C13         -1.1730     4.6040     3.3900 c3         1 2AA       0.176600
      2 N5          -1.0820     4.4240     1.9280 nh         1 2AA      -0.771400
      3 C12         -0.7180     5.6120     1.1320 c3         1 2AA       0.176600
      4 C11         -0.9560     3.1270     1.3690 ca         1 2AA       0.221000
      5 C10          0.0810     2.3040     1.8360 ca         1 2AA      -0.136000
      6 C9           0.2570     1.0190     1.3160 ca         1 2AA      -0.042000
      7 C8          -0.5950     0.5470     0.3100 ca         1 2AA      -0.111000
      8 C7          -1.6490     1.3430    -0.1970 ca         1 2AA       0.050000
      9 C6          -1.8340     2.6430     0.3570 ca         1 2AA      -0.064000
     10 C5          -2.9100     3.4410    -0.0930 ca         1 2AA      -0.049000
     11 C4          -3.7830     2.9720    -1.0800 ca         1 2AA      -0.173000
     12 C3          -3.5990     1.7040    -1.6390 ca         1 2AA      -0.024000
     13 C2          -2.5380     0.8750    -1.2160 ca         1 2AA      -0.272500
     14 S1          -2.3910    -0.7400    -2.0430 sy         1 2AA       1.133600
     15 O3          -3.4340    -0.9100    -3.0590 o          1 2AA      -0.562000
     16 O4          -0.9880    -0.9850    -2.3590 o          1 2AA      -0.562000
     17 N4          -2.7400    -1.8480    -0.8480 n7         1 2AA      -0.844300
     18 C1          -3.6090    -1.4430     0.2730 c3         1 2AA       0.175800
     19 C15         -3.7900    -2.5630     1.3310 c3         1 2AA       0.238600
     20 O2          -2.6150    -2.6520     2.1540 os         1 2AA      -0.604400
     21 P2          -1.4430    -3.7260     1.8900 p5         1 2AA       1.458800
     22 O1          -0.6590    -3.8460     3.1540 o          1 2AA      -0.835500
     23 O9          -2.0280    -5.0270     1.4500 o          1 2AA      -0.835500
     24 O8          -0.7130    -2.9530     0.7170 os         1 2AA      -0.720800
     25 P1           0.8090    -3.3860     0.6370 p5         1 2AA       1.451800
     26 O7           1.6560    -2.5150     1.5020 o          1 2AA      -0.842500
     27 O6           1.0820    -4.8430     0.8100 o          1 2AA      -0.842500
     28 O5           1.0090    -3.0180    -0.9180 os         1 2AA      -0.581400
     29 C14          2.3170    -2.6880    -1.4220 c3         1 2AA       0.215600
     30 C16          2.2950    -1.2590    -2.0220 c5         1 2AA       0.160300
     31 O12          2.0570    -0.2590    -1.0190 os         1 2AA      -0.408000
     32 C17          3.6430    -0.7630    -2.6220 c5         1 2AA       0.104300
     33 O11          3.9750    -1.3410    -3.8840 oh         1 2AA      -0.710000
     34 C18          3.3410     0.7620    -2.8120 c5         1 2AA       0.070300
     35 O10          2.8190     0.9930    -4.1460 oh         1 2AA      -0.729000
     36 C19          2.2650     1.0010    -1.6760 c5         1 2AA       0.340700
     37 N3           2.7440     2.0770    -0.7710 n          1 2AA      -0.305000
     38 C20          2.1570     3.3360    -0.8630 cc         1 2AA       0.046600
     39 C21          2.5430     4.3190     0.0150 cd         1 2AA      -0.509600
     40 C22          3.5060     3.9750     0.9800 cd         1 2AA       0.780500
     41 N2           3.9230     4.8750     1.8460 nv         1 2AA      -1.053200
     42 N1           4.0690     2.8200     1.0730 nc         1 2AA      -0.770100
     43 C23          3.7260     1.8110     0.2100 c          1 2AA       0.710400
     44 O13          4.3060     0.7420     0.2980 o          1 2AA      -0.504000
     45 H131        -1.7960     5.4760     3.6290 h1         1 2AA       0.023367
     46 H132        -1.6310     3.7220     3.8580 h1         1 2AA       0.023367
     47 H133        -0.1740     4.7540     3.8220 h1         1 2AA       0.023367
     48 H121         0.2000     6.0710     1.5240 h1         1 2AA       0.023367
     49 H122        -0.5450     5.3360     0.0830 h1         1 2AA       0.023367
     50 H123        -1.5280     6.3530     1.1620 h1         1 2AA       0.023367
     51 H10          0.7600     2.6670     2.6020 ha         1 2AA       0.115000
     52 H9           1.0650     0.3860     1.6820 ha         1 2AA       0.188000
     53 H8          -0.4030    -0.4530    -0.0540 ha         1 2AA       0.175000
     54 H5          -3.0900     4.4270     0.3250 ha         1 2AA       0.107000
     55 H4          -4.6080     3.5970    -1.4140 ha         1 2AA       0.092000
     56 H3          -4.2930     1.3730    -2.4100 ha         1 2AA       0.128000
     57 HN4         -1.8070    -2.0940    -0.4910 hn         1 2AA       0.558000
     58 H1'1        -3.2130    -0.5640     0.7950 h1         1 2AA       0.030700
     59 H1'2        -4.6010    -1.1740    -0.1130 h1         1 2AA       0.030700
     60 H91         -4.6530    -2.3070     1.9590 h1         1 2AA       0.025700
     61 H92         -4.0190    -3.5120     0.8300 h1         1 2AA       0.025700
     62 H141         3.0870    -2.7410    -0.6410 h1         1 2AA       0.028200
     63 H142         2.5990    -3.3960    -2.2110 h1         1 2AA       0.028200
     64 H2           1.4980    -1.2170    -2.7770 h1         1 2AA       0.113700
     65 H7           4.4590    -0.9140    -1.9000 h1         1 2AA       0.054700
     66 HO4          3.6200    -0.6620    -4.5150 ho         1 2AA       0.494000
     67 H6           4.2510     1.3560    -2.6380 h1         1 2AA       0.097700
     68 HO3          2.7630     1.9690    -4.2860 ho         1 2AA       0.502000
     69 H11          1.3170     1.3360    -2.1130 h2         1 2AA       0.049700
     70 H15          1.4120     3.4320    -1.6500 h4         1 2AA       0.197000
     71 H16          2.1130     5.3110    -0.0200 ha         1 2AA       0.187000
     72 HN21         3.8240     5.8370     1.5550 hn         1 2AA       0.489500
     73 HN22         4.7920     4.6340     2.3010 hn         1 2AA       0.489500
@<TRIPOS>BOND
     1     1     2 1   
     2     1    45 1   
     3     1    46 1   
     4     1    47 1   
     5     2     3 1   
     6     2     4 1   
     7     3    48 1   
     8     3    49 1   
     9     3    50 1   
    10     4     5 ar  
    11     4     9 ar  
    12     5     6 ar  
    13     5    51 1   
    14     6     7 ar  
    15     6    52 1   
    16     7     8 ar  
    17     7    53 1   
    18     8     9 ar  
    19     8    13 ar  
    20     9    10 ar  
    21    10    11 ar  
    22    10    54 1   
    23    11    12 ar  
    24    11    55 1   
    25    12    13 ar  
    26    12    56 1   
    27    13    14 1   
    28    14    15 2   
    29    14    16 2   
    30    14    17 1   
    31    17    18 1   
    32    17    57 1   
    33    18    19 1   
    34    18    58 1   
    35    18    59 1   
    36    19    20 1   
    37    19    60 1   
    38    19    61 1   
    39    20    21 1   
    40    21    22 1   
    41    21    23 1   
    42    21    24 1   
    43    24    25 1   
    44    25    26 1   
    45    25    27 1   
    46    25    28 1   
    47    28    29 1   
    48    29    30 1   
    49    29    62 1   
    50    29    63 1   
    51    30    31 1   
    52    30    32 1   
    53    30    64 1   
    54    31    36 1   
    55    32    33 1   
    56    32    34 1   
    57    32    65 1   
    58    33    66 1   
    59    34    35 1   
    60    34    36 1   
    61    34    67 1   
    62    35    68 1   
    63    36    37 1   
    64    36    69 1   
    65    37    38 1   
    66    37    43 1   
    67    38    39 2   
    68    38    70 1   
    69    39    40 1   
    70    39    71 1   
    71    40    41 1   
    72    40    42 2   
    73    41    72 1   
    74    41    73 1   
    75    42    43 1   
    76    43    44 2   
@<TRIPOS>SUBSTRUCTURE
     1 2AA         1 TEMP              0 ****  ****    0 ROOT
