@<TRIPOS>MOLECULE
2AB
   23    23     1     0     0
SMALL
No Charge or Current Charge


@<TRIPOS>ATOM
      1 C1           3.9020    -0.2860    -0.5060 c3         1 2AB       0.151800
      2 C2           3.0840     0.2310     0.6950 c3         1 2AB      -0.041100
      3 C3           1.5870     0.2120     0.4160 ca         1 2AB      -0.041300
      4 C4           0.8230    -0.9340     0.7120 ca         1 2AB      -0.125500
      5 C5          -0.5580    -0.9550     0.4510 ca         1 2AB      -0.031500
      6 C6          -1.1850     0.1740    -0.1100 ca         1 2AB      -0.086500
      7 N9           5.3540    -0.2720    -0.2330 n8         1 2AB      -0.998200
      8 S10         -2.9860     0.1570    -0.4610 sx         1 2AB       0.554300
      9 O12         -3.3760     0.0330     1.1870 oh         1 2AB      -0.613800
     10 O11         -3.2750    -1.1620    -1.1560 o          1 2AB      -0.531000
     11 C7          -0.4270     1.3200    -0.4100 ca         1 2AB      -0.031500
     12 C8           0.9550     1.3370    -0.1480 ca         1 2AB      -0.125500
     13 H11          3.5980    -1.3160    -0.7390 h1         1 2AB       0.030700
     14 H12A         3.7010     0.3410    -1.3860 h1         1 2AB       0.030700
     15 H21          3.3090    -0.3840     1.5750 hc         1 2AB       0.057700
     16 H22          3.4070     1.2500     0.9420 hc         1 2AB       0.057700
     17 H4           1.3000    -1.8110     1.1440 ha         1 2AB       0.114500
     18 H5          -1.1420    -1.8430     0.6820 ha         1 2AB       0.127000
     19 HN91         5.8550    -0.5760    -1.0770 hn         1 2AB       0.393500
     20 HN92         5.6620     0.7000    -0.1090 hn         1 2AB       0.393500
     21 H12         -3.9910     0.7810     1.3270 ho         1 2AB       0.472000
     22 H7          -0.9060     2.1940    -0.8470 ha         1 2AB       0.127000
     23 H8           1.5330     2.2270    -0.3850 ha         1 2AB       0.114500
@<TRIPOS>BOND
     1     1     2 1   
     2     1     7 1   
     3     1    13 1   
     4     1    14 1   
     5     2     3 1   
     6     2    15 1   
     7     2    16 1   
     8     3     4 ar  
     9     3    12 ar  
    10     4     5 ar  
    11     4    17 1   
    12     5     6 ar  
    13     5    18 1   
    14     6     8 1   
    15     6    11 ar  
    16     7    19 1   
    17     7    20 1   
    18     8     9 1   
    19     8    10 2   
    20     9    21 1   
    21    11    12 ar  
    22    11    22 1   
    23    12    23 1   
@<TRIPOS>SUBSTRUCTURE
     1 2AB         1 TEMP              0 ****  ****    0 ROOT
