@<TRIPOS>MOLECULE
2AB
   23    23     1     0     0
SMALL
abcg2


@<TRIPOS>ATOM
      1 C1           3.8680    -0.1670    -0.5610 c3         1 2AB       0.151800
      2 C2           3.0840     0.1380     0.7150 c3         1 2AB      -0.041100
      3 C3           1.6040     0.1080     0.4720 ca         1 2AB      -0.041300
      4 C4           0.8800    -1.0710     0.6380 ca         1 2AB      -0.125500
      5 C5          -0.4790    -1.1230     0.3640 ca         1 2AB      -0.031500
      6 C6          -1.1200     0.0240    -0.0730 ca         1 2AB      -0.086500
      7 N9           5.2970    -0.1650    -0.2930 n8         1 2AB      -0.998200
      8 S10         -2.8560    -0.0210    -0.4830 sx         1 2AB       0.554300
      9 O12         -3.3180     0.8440     0.8400 oh         1 2AB      -0.613800
     10 O11         -3.2890    -1.4280    -0.3020 o          1 2AB      -0.531000
     11 C7          -0.4230     1.2110    -0.2540 ca         1 2AB      -0.031500
     12 C8           0.9340     1.2450     0.0210 ca         1 2AB      -0.125500
     13 H11          3.5860    -1.1590    -0.9220 h1         1 2AB       0.030700
     14 H12A         3.5620     0.5440    -1.3420 h1         1 2AB       0.030700
     15 H21          3.3560    -0.5920     1.4810 hc         1 2AB       0.057700
     16 H22          3.3770     1.1230     1.0900 hc         1 2AB       0.057700
     17 H4           1.3840    -1.9630     0.9900 ha         1 2AB       0.114500
     18 H5          -1.0250    -2.0480     0.4910 ha         1 2AB       0.127000
     19 HN91         5.7970    -0.4340    -1.1310 hn         1 2AB       0.393500
     20 HN92         5.5980     0.7790    -0.0860 hn         1 2AB       0.393500
     21 H12         -4.1490     1.2970     0.6330 ho         1 2AB       0.472000
     22 H7          -0.9250     2.1040    -0.6060 ha         1 2AB       0.127000
     23 H8           1.4810     2.1700    -0.1160 ha         1 2AB       0.114500
@<TRIPOS>BOND
     1     1     2 1   
     2     1     7 1   
     3     1    13 1   
     4     1    14 1   
     5     2     3 1   
     6     2    15 1   
     7     2    16 1   
     8     3     4 ar  
     9     3    12 ar  
    10     4     5 ar  
    11     4    17 1   
    12     5     6 ar  
    13     5    18 1   
    14     6     8 1   
    15     6    11 ar  
    16     7    19 1   
    17     7    20 1   
    18     8     9 1   
    19     8    10 2   
    20     9    21 1   
    21    11    12 ar  
    22    11    22 1   
    23    12    23 1   
@<TRIPOS>SUBSTRUCTURE
     1 2AB         1 TEMP              0 ****  ****    0 ROOT
