@<TRIPOS>MOLECULE
2AC
   18    18     1     0     0
SMALL
No Charge or Current Charge


@<TRIPOS>ATOM
      1 N           -1.9070     0.0160    -1.6070 nv         1 2AC      -1.055000
      2 O            0.7910    -0.1760    -2.5000 oh         1 2AC      -0.544100
      3 C1          -0.8590    -0.0200    -0.7120 ca         1 2AC       0.265000
      4 C2           0.4880    -0.1140    -1.1600 ca         1 2AC       0.067100
      5 C3           1.5340    -0.1470    -0.2200 ca         1 2AC      -0.156000
      6 C4           1.2490    -0.0900     1.1550 ca         1 2AC      -0.118000
      7 C5          -0.0810    -0.0010     1.6040 ca         1 2AC      -0.066300
      8 C6          -1.1300     0.0350     0.6650 ca         1 2AC      -0.154000
      9 C8          -0.3840     0.0630     3.0940 c3         1 2AC      -0.042800
     10 HN1         -1.7060    -0.1620    -2.5900 hn         1 2AC       0.445000
     11 HN2         -2.8620    -0.1230    -1.2840 hn         1 2AC       0.445000
     12 HO           1.7660    -0.2340    -2.5990 ho         1 2AC       0.459000
     13 H3           2.5690    -0.2180    -0.5490 ha         1 2AC       0.110000
     14 H4           2.0660    -0.1150     1.8740 ha         1 2AC       0.112000
     15 H6          -2.1580     0.1080     1.0100 ha         1 2AC       0.111000
     16 H81         -0.4130     1.1030     3.4410 hc         1 2AC       0.040367
     17 H82         -1.3530    -0.3950     3.3250 hc         1 2AC       0.040367
     18 H83          0.3770    -0.4650     3.6800 hc         1 2AC       0.040367
@<TRIPOS>BOND
     1     1     3 1   
     2     1    10 1   
     3     1    11 1   
     4     2     4 1   
     5     2    12 1   
     6     3     4 ar  
     7     3     8 ar  
     8     4     5 ar  
     9     5     6 ar  
    10     5    13 1   
    11     6     7 ar  
    12     6    14 1   
    13     7     8 ar  
    14     7     9 1   
    15     8    15 1   
    16     9    16 1   
    17     9    17 1   
    18     9    18 1   
@<TRIPOS>SUBSTRUCTURE
     1 2AC         1 TEMP              0 ****  ****    0 ROOT
