@<TRIPOS>MOLECULE
2AD
   33    35     1     0     0
SMALL
abcg2


@<TRIPOS>ATOM
      1 O5          -2.5160     0.3640    -3.3380 oh         1 2AD      -0.699000
      2 C5          -1.3580    -0.4200    -3.4730 c3         1 2AD       0.143600
      3 C4          -0.1430     0.4430    -3.1870 c5         1 2AD       0.132300
      4 O4          -0.2480     1.0880    -1.9130 os         1 2AD      -0.427000
      5 C3           1.1360    -0.3850    -3.1120 c5         1 2AD       0.093300
      6 O3           2.2900     0.3890    -3.3190 oh         1 2AD      -0.709000
      7 C2           1.1190    -0.8100    -1.6390 c5         1 2AD       0.130500
      8 C1           0.5730     0.4610    -0.9740 c5         1 2AD       0.315300
      9 N9          -0.1950     0.1940     0.2240 na         1 2AD      -0.285300
     10 C8          -1.4770    -0.2770     0.2930 cc         1 2AD       0.409700
     11 N7          -1.8970    -0.4580     1.5110 nd         1 2AD      -0.560100
     12 C7          -0.8340    -0.0880     2.2940 ca         1 2AD      -0.101600
     13 C6          -0.6440    -0.0430     3.6870 ca         1 2AD       0.449900
     14 N6          -1.5870    -0.4110     4.5560 nv         1 2AD      -1.068900
     15 N1           0.5330     0.3960     4.1450 nb         1 2AD      -0.305000
     16 C10          1.4680     0.7690     3.2730 ca         1 2AD       0.179900
     17 N3           1.4110     0.7650     1.9540 nb         1 2AD      -0.212000
     18 C9           0.2350     0.3240     1.5120 ca         1 2AD       0.143500
     19 N            2.3320    -1.2620    -1.0180 n8         1 2AD      -0.973200
     20 H5          -3.2790    -0.2020    -3.4860 ho         1 2AD       0.506000
     21 H5'1        -1.2500    -0.8250    -4.4870 h1         1 2AD       0.020700
     22 H5'2        -1.3790    -1.2810    -2.7900 h1         1 2AD       0.020700
     23 H4          -0.0770     1.2280    -3.9480 h1         1 2AD       0.087700
     24 H3           1.1010    -1.2500    -3.7870 h1         1 2AD       0.052700
     25 HA           2.2930     0.7080    -4.2270 ho         1 2AD       0.515000
     26 H2           0.3750    -1.6050    -1.5330 h1         1 2AD       0.073700
     27 H1           1.3960     1.1150    -0.6640 h2         1 2AD       0.116700
     28 H8          -2.0700    -0.4450    -0.5940 h5         1 2AD       0.068800
     29 H6N1        -1.4050    -0.3850     5.5440 hn         1 2AD       0.505000
     30 H6N2        -2.4700    -0.7740     4.2420 hn         1 2AD       0.505000
     31 H7           2.3970     1.1200     3.7100 h5         1 2AD       0.044100
     32 HN1          2.5940    -2.1660    -1.3900 hn         1 2AD       0.414000
     33 HN2          3.0960    -0.6300    -1.2250 hn         1 2AD       0.414000
@<TRIPOS>BOND
     1     1     2 1   
     2     1    20 1   
     3     2     3 1   
     4     2    21 1   
     5     2    22 1   
     6     3     4 1   
     7     3     5 1   
     8     3    23 1   
     9     4     8 1   
    10     5     6 1   
    11     5     7 1   
    12     5    24 1   
    13     6    25 1   
    14     7     8 1   
    15     7    19 1   
    16     7    26 1   
    17     8     9 1   
    18     8    27 1   
    19     9    10 1   
    20     9    18 1   
    21    10    11 2   
    22    10    28 1   
    23    11    12 1   
    24    12    13 ar  
    25    12    18 ar  
    26    13    14 1   
    27    13    15 ar  
    28    14    29 1   
    29    14    30 1   
    30    15    16 ar  
    31    16    17 ar  
    32    16    31 1   
    33    17    18 ar  
    34    19    32 1   
    35    19    33 1   
@<TRIPOS>SUBSTRUCTURE
     1 2AD         1 TEMP              0 ****  ****    0 ROOT
