@<TRIPOS>MOLECULE
2AD
   33    35     1     0     0
SMALL
No Charge or Current Charge


@<TRIPOS>ATOM
      1 O5          -2.1940     1.5660    -3.3200 oh         1 2AD      -0.699000
      2 C5          -1.3480     0.4040    -3.3560 c3         1 2AD       0.143600
      3 C4           0.1120     0.7530    -2.9300 c5         1 2AD       0.132300
      4 O4           0.1590     0.9830    -1.4940 os         1 2AD      -0.427000
      5 C3           1.1400    -0.4020    -3.1870 c5         1 2AD       0.093300
      6 O3           2.5110     0.0460    -3.2310 oh         1 2AD      -0.709000
      7 C2           0.8570    -1.2820    -1.9320 c5         1 2AD       0.130500
      8 C1           0.7950    -0.1460    -0.8440 c5         1 2AD       0.315300
      9 N9           0.1080    -0.4330     0.4180 na         1 2AD      -0.285300
     10 C8          -0.6620    -1.5660     0.7040 cc         1 2AD       0.409700
     11 N7          -1.1410    -1.5330     1.9620 nd         1 2AD      -0.560100
     12 C7          -0.6360    -0.3300     2.4660 ca         1 2AD      -0.101600
     13 C6          -0.7940     0.2470     3.7430 ca         1 2AD       0.449900
     14 N6          -1.5230    -0.3400     4.7280 nv         1 2AD      -1.068900
     15 N1          -0.2120     1.4160     4.0540 nb         1 2AD      -0.305000
     16 C10          0.5200     1.9970     3.0730 ca         1 2AD       0.179900
     17 N3           0.7230     1.5180     1.8220 nb         1 2AD      -0.212000
     18 C9           0.1250     0.3430     1.5430 ca         1 2AD       0.143500
     19 N            1.8860    -2.3340    -1.7090 n8         1 2AD      -0.973200
     20 H5          -3.1050     1.2690    -3.5560 ho         1 2AD       0.506000
     21 H5'1        -1.3250    -0.0050    -4.3750 h1         1 2AD       0.020700
     22 H5'2        -1.7470    -0.3780    -2.6950 h1         1 2AD       0.020700
     23 H4           0.4100     1.6710    -3.4550 h1         1 2AD       0.087700
     24 H3           0.8970    -0.9490    -4.1100 h1         1 2AD       0.052700
     25 HA           2.6470     0.5080    -4.0920 ho         1 2AD       0.515000
     26 H2          -0.1170    -1.7820    -2.0220 h1         1 2AD       0.073700
     27 H1           1.8190     0.1380    -0.5710 h2         1 2AD       0.116700
     28 H8          -0.8340    -2.3580    -0.0160 h5         1 2AD       0.068800
     29 H6N1        -1.3570    -0.0420     5.6860 hn         1 2AD       0.505000
     30 H6N2        -1.7820    -1.3150     4.5920 hn         1 2AD       0.505000
     31 H7           0.9960     2.9460     3.3140 h5         1 2AD       0.044100
     32 HN1          1.7980    -3.0520    -2.4380 hn         1 2AD       0.414000
     33 HN2          2.7970    -1.9100    -1.9310 hn         1 2AD       0.414000
@<TRIPOS>BOND
     1     1     2 1   
     2     1    20 1   
     3     2     3 1   
     4     2    21 1   
     5     2    22 1   
     6     3     4 1   
     7     3     5 1   
     8     3    23 1   
     9     4     8 1   
    10     5     6 1   
    11     5     7 1   
    12     5    24 1   
    13     6    25 1   
    14     7     8 1   
    15     7    19 1   
    16     7    26 1   
    17     8     9 1   
    18     8    27 1   
    19     9    10 1   
    20     9    18 1   
    21    10    11 2   
    22    10    28 1   
    23    11    12 1   
    24    12    13 ar  
    25    12    18 ar  
    26    13    14 1   
    27    13    15 ar  
    28    14    29 1   
    29    14    30 1   
    30    15    16 ar  
    31    16    17 ar  
    32    16    31 1   
    33    17    18 ar  
    34    19    32 1   
    35    19    33 1   
@<TRIPOS>SUBSTRUCTURE
     1 2AD         1 TEMP              0 ****  ****    0 ROOT
