@<TRIPOS>MOLECULE
2AE
   18    18     1     0     0
SMALL
abcg2


@<TRIPOS>ATOM
      1 C1          -0.1750    -0.2350     0.1130 ca         1 2AE      -0.255600
      2 C6           0.5370     0.9880     0.0180 ca         1 2AE       0.394000
      3 C5           1.9420     0.9270    -0.0800 ca         1 2AE      -0.217000
      4 C4           2.6170    -0.2710    -0.0350 ca         1 2AE      -0.034000
      5 C3           1.9240    -1.4730     0.1090 ca         1 2AE      -0.188000
      6 C2           0.5470    -1.4340     0.1760 ca         1 2AE      -0.034000
      7 C           -1.6600    -0.2460     0.1490 c          1 2AE       0.628700
      8 O1          -2.3190     0.7440     0.4630 o          1 2AE      -0.641100
      9 N           -2.2650    -1.4040    -0.1770 nt         1 2AE      -0.600000
     10 N2          -0.0570     2.2060     0.0280 nv         1 2AE      -1.104000
     11 H2           0.0160    -2.3690     0.3060 ha         1 2AE       0.104000
     12 H3           2.4510    -2.4150     0.1700 ha         1 2AE       0.116000
     13 H4           3.6980    -0.2720    -0.1020 ha         1 2AE       0.110000
     14 H5           2.4950     1.8530    -0.1800 ha         1 2AE       0.112000
     15 H21N        -1.0590     2.2660    -0.0100 hn         1 2AE       0.493500
     16 H22N         0.4670     2.9980    -0.3010 hn         1 2AE       0.493500
     17 HN1         -1.7830    -2.1600    -0.6290 hn         1 2AE       0.311000
     18 HN2         -3.2710    -1.4340    -0.2000 hn         1 2AE       0.311000
@<TRIPOS>BOND
     1     1     2 ar  
     2     1     6 ar  
     3     1     7 1   
     4     2     3 ar  
     5     2    10 1   
     6     3     4 ar  
     7     3    14 1   
     8     4     5 ar  
     9     4    13 1   
    10     5     6 ar  
    11     5    12 1   
    12     6    11 1   
    13     7     8 2   
    14     7     9 1   
    15     9    17 1   
    16     9    18 1   
    17    10    15 1   
    18    10    16 1   
@<TRIPOS>SUBSTRUCTURE
     1 2AE         1 TEMP              0 ****  ****    0 ROOT
