@<TRIPOS>MOLECULE
2AE
   18    18     1     0     0
SMALL
No Charge or Current Charge


@<TRIPOS>ATOM
      1 C1          -0.1790    -0.2190    -0.0020 ca         1 2AE      -0.255600
      2 C6           0.5650     0.9810    -0.0830 ca         1 2AE       0.394000
      3 C5           1.9660     0.9560    -0.0840 ca         1 2AE      -0.217000
      4 C4           2.6600    -0.2590    -0.0090 ca         1 2AE      -0.034000
      5 C3           1.9400    -1.4580     0.0680 ca         1 2AE      -0.188000
      6 C2           0.5360    -1.4430     0.0720 ca         1 2AE      -0.034000
      7 C           -1.6940    -0.2200     0.0210 c          1 2AE       0.628700
      8 O1          -2.3780     0.7830     0.1530 o          1 2AE      -0.641100
      9 N           -2.3260    -1.4070    -0.0830 nt         1 2AE      -0.600000
     10 N2          -0.0420     2.1960    -0.1760 nv         1 2AE      -1.104000
     11 H2           0.0190    -2.3970     0.1460 ha         1 2AE       0.104000
     12 H3           2.4720    -2.4050     0.1290 ha         1 2AE       0.116000
     13 H4           3.7480    -0.2720    -0.0110 ha         1 2AE       0.110000
     14 H5           2.5280     1.8840    -0.1500 ha         1 2AE       0.112000
     15 H21N        -1.0500     2.2010    -0.0050 hn         1 2AE       0.493500
     16 H22N         0.4740     3.0300     0.0940 hn         1 2AE       0.493500
     17 HN1         -1.7980    -2.2560    -0.2010 hn         1 2AE       0.311000
     18 HN2         -3.3350    -1.4280    -0.0620 hn         1 2AE       0.311000
@<TRIPOS>BOND
     1     1     2 ar  
     2     1     6 ar  
     3     1     7 1   
     4     2     3 ar  
     5     2    10 1   
     6     3     4 ar  
     7     3    14 1   
     8     4     5 ar  
     9     4    13 1   
    10     5     6 ar  
    11     5    12 1   
    12     6    11 1   
    13     7     8 2   
    14     7     9 1   
    15     9    17 1   
    16     9    18 1   
    17    10    15 1   
    18    10    16 1   
@<TRIPOS>SUBSTRUCTURE
     1 2AE         1 TEMP              0 ****  ****    0 ROOT
