@<TRIPOS>MOLECULE
2AF
   15    15     1     0     0
SMALL
bcc


@<TRIPOS>ATOM
      1 N            1.2880    -0.2280     1.7650 nv         1 2AF      -0.809200
      2 O           -1.4760    -0.2020     1.6070 oh         1 2AF      -0.507100
      3 C1           0.6610    -0.0960     0.5240 ca         1 2AF       0.032600
      4 C2          -0.7420    -0.0990     0.4700 ca         1 2AF       0.105100
      5 C3          -1.3980     0.0040    -0.7480 ca         1 2AF      -0.138000
      6 C4          -0.6770     0.0880    -1.9350 ca         1 2AF      -0.122000
      7 C5           0.7070     0.0560    -1.8930 ca         1 2AF      -0.133000
      8 C6           1.3670    -0.0300    -0.6740 ca         1 2AF      -0.150000
      9 HN1          2.2950    -0.2140     1.6980 hn         1 2AF       0.375300
     10 HN2          1.0030     0.4700     2.4410 hn         1 2AF       0.375300
     11 HO          -0.9530    -0.6510     2.2840 ho         1 2AF       0.434000
     12 H3          -2.4810     0.0030    -0.7560 ha         1 2AF       0.145000
     13 H4          -1.2080     0.1620    -2.8750 ha         1 2AF       0.135000
     14 H5           1.2870     0.1110    -2.8060 ha         1 2AF       0.131000
     15 H6           2.4500    -0.0290    -0.6440 ha         1 2AF       0.127000
@<TRIPOS>BOND
     1     1     3 1   
     2     1     9 1   
     3     1    10 1   
     4     2     4 1   
     5     2    11 1   
     6     3     4 ar  
     7     3     8 ar  
     8     4     5 ar  
     9     5     6 ar  
    10     5    12 1   
    11     6     7 ar  
    12     6    13 1   
    13     7     8 ar  
    14     7    14 1   
    15     8    15 1   
@<TRIPOS>SUBSTRUCTURE
     1 2AF         1 TEMP              0 ****  ****    0 ROOT
