@<TRIPOS>MOLECULE
2AF
   15    15     1     0     0
SMALL
No Charge or Current Charge


@<TRIPOS>ATOM
      1 N            1.3410    -0.1670     1.7280 nv         1 2AF      -1.058000
      2 O           -1.5140    -0.2220     1.6200 oh         1 2AF      -0.546100
      3 C1           0.6510    -0.1040     0.5300 ca         1 2AF       0.171000
      4 C2          -0.7700    -0.0970     0.4770 ca         1 2AF       0.105100
      5 C3          -1.4300     0.0020    -0.7600 ca         1 2AF      -0.120000
      6 C4          -0.6890     0.0820    -1.9510 ca         1 2AF      -0.104000
      7 C5           0.7150     0.0580    -1.9060 ca         1 2AF      -0.115000
      8 C6           1.3810    -0.0360    -0.6700 ca         1 2AF      -0.132000
      9 HN1          2.3600    -0.1450     1.6890 hn         1 2AF       0.430500
     10 HN2          0.9440     0.2710     2.5580 hn         1 2AF       0.430500
     11 HO          -0.9030    -0.5280     2.3250 ho         1 2AF       0.473000
     12 H3          -2.5170     0.0060    -0.7960 ha         1 2AF       0.127000
     13 H4          -1.2020     0.1550    -2.9080 ha         1 2AF       0.117000
     14 H5           1.2890     0.1150    -2.8290 ha         1 2AF       0.113000
     15 H6           2.4670    -0.0460    -0.6500 ha         1 2AF       0.109000
@<TRIPOS>BOND
     1     1     3 1   
     2     1     9 1   
     3     1    10 1   
     4     2     4 1   
     5     2    11 1   
     6     3     4 ar  
     7     3     8 ar  
     8     4     5 ar  
     9     5     6 ar  
    10     5    12 1   
    11     6     7 ar  
    12     6    13 1   
    13     7     8 ar  
    14     7    14 1   
    15     8    15 1   
@<TRIPOS>SUBSTRUCTURE
     1 2AF         1 TEMP              0 ****  ****    0 ROOT
