@<TRIPOS>MOLECULE
2AG
   16    15     1     0     0
SMALL
bcc


@<TRIPOS>ATOM
      1 C1A        -11.2450    20.1970   -55.9320 c2         1 2AG      -0.290000
      2 C1E        -11.1370    19.3400   -56.9420 c2         1 2AG      -0.100200
      3 CB         -10.0960    18.2710   -57.0380 c3         1 2AG      -0.030200
      4 CA         -10.6520    16.8360   -57.0160 c3         1 2AG       0.017500
      5 C          -11.6090    16.6250   -58.2150 c          1 2AG       0.899600
      6 O          -11.0740    16.3160   -59.3000 o          1 2AG      -0.839800
      7 OXT        -12.8250    16.8140   -58.0070 o          1 2AG      -0.839800
      8 N           -9.5200    15.9150   -56.9770 n8         1 2AG      -0.891800
      9 H1A        -10.5660    20.1740   -55.0870 ha         1 2AG       0.090000
     10 H1AA       -12.0180    20.9550   -55.9100 ha         1 2AG       0.090000
     11 H1E        -11.8430    19.4140   -57.7630 ha         1 2AG       0.135000
     12 HB2         -9.5280    18.3990   -57.9670 hc         1 2AG       0.032200
     13 HB3         -9.3860    18.3770   -56.2140 hc         1 2AG       0.032200
     14 HA         -11.2160    16.7120   -56.0870 h1         1 2AG       0.041700
     15 H           -9.8700    14.9780   -56.8170 hn         1 2AG       0.326300
     16 H2          -9.1260    15.8830   -57.9120 hn         1 2AG       0.326300
@<TRIPOS>BOND
     1     1     2 2   
     2     1     9 1   
     3     1    10 1   
     4     2     3 1   
     5     2    11 1   
     6     3     4 1   
     7     3    12 1   
     8     3    13 1   
     9     4     5 1   
    10     4     8 1   
    11     4    14 1   
    12     5     6 1   
    13     5     7 1   
    14     8    15 1   
    15     8    16 1   
@<TRIPOS>SUBSTRUCTURE
     1 2AG         1 TEMP              0 ****  ****    0 ROOT
