@<TRIPOS>MOLECULE
2AH
   95    99     1     0     0
SMALL
bcc


@<TRIPOS>ATOM
      1 C1          -3.1190    -0.5320    -0.5830 c3         1 2AH       0.096800
      2 C2          -3.0110    -0.4640     0.9500 c          1 2AH       0.644100
      3 O3          -3.2770    -1.4320     1.6510 o          1 2AH      -0.632100
      4 N4          -2.6970     0.7430     1.4330 ns         1 2AH      -0.526900
      5 C5          -2.8210     1.0910     2.8190 c5         1 2AH       0.166000
      6 C6          -2.1630     2.4040     3.1470 ca         1 2AH      -0.105300
      7 C7          -1.0040     2.9540     2.6260 ca         1 2AH      -0.102000
      8 C8          -0.5810     4.1920     3.1010 ca         1 2AH      -0.132000
      9 C9          -1.3080     4.8560     4.0820 ca         1 2AH      -0.124000
     10 C10         -2.4720     4.2950     4.6030 ca         1 2AH      -0.117000
     11 C11         -2.8950     3.0660     4.1270 ca         1 2AH      -0.075300
     12 C12         -4.0930     2.2460     4.5130 c5         1 2AH      -0.070100
     13 C13         -4.2710     1.2990     3.3150 c5         1 2AH       0.119100
     14 O14         -4.9870     1.9010     2.2650 oh         1 2AH      -0.588800
     15 C24         -4.6390    -0.5190    -0.8650 c3         1 2AH      -0.029100
     16 C25         -4.9970    -0.4210    -2.3200 ca         1 2AH      -0.076300
     17 C26         -5.3470    -1.5600    -3.0430 ca         1 2AH      -0.117500
     18 C27         -5.6800    -1.4800    -4.3890 ca         1 2AH      -0.132500
     19 C28         -5.6740    -0.2500    -5.0340 ca         1 2AH      -0.128000
     20 C29         -5.3370     0.8940    -4.3210 ca         1 2AH      -0.132500
     21 C30         -5.0000     0.8080    -2.9770 ca         1 2AH      -0.117500
     22 O36         -2.5460     0.5900    -1.1920 oh         1 2AH      -0.598800
     23 C41         -2.4690    -1.8100    -1.1350 c3         1 2AH       0.146800
     24 N42         -1.0360    -1.6260    -1.2880 n3         1 2AH      -0.514600
     25 N43         -0.2940    -1.9330    -0.1680 ns         1 2AH      -0.434300
     26 C44         -0.4500    -2.2320    -2.4830 c3         1 2AH       0.209100
     27 C45          0.5130    -1.0030     0.3910 c          1 2AH       0.676100
     28 O46          0.4310     0.1860     0.1480 o          1 2AH      -0.589100
     29 C47          1.5720    -1.5620     1.3470 c3         1 2AH       0.053700
     30 C48          1.1390    -1.5760     2.8390 c3         1 2AH      -0.046000
     31 C49          0.7420    -0.1840     3.3230 c3         1 2AH      -0.091433
     32 C50         -0.0410    -2.5350     3.0140 c3         1 2AH      -0.091433
     33 N51          2.7740    -0.8020     1.1110 ns         1 2AH      -0.555900
     34 C54          3.9580    -1.3800     0.8270 c          1 2AH       0.756100
     35 O55          4.1900    -2.5710     0.8620 o          1 2AH      -0.597000
     36 O56          4.8710    -0.4540     0.5210 os         1 2AH      -0.429900
     37 C78          0.9730    -1.7800    -2.6480 ca         1 2AH      -0.095300
     38 C79          2.0360    -2.6480    -2.4360 ca         1 2AH      -0.114500
     39 C80          3.3470    -2.2080    -2.5390 ca         1 2AH      -0.100500
     40 C81          3.6260    -0.8780    -2.8430 cp         1 2AH      -0.141500
     41 C82          1.2510    -0.4540    -2.9630 ca         1 2AH      -0.114500
     42 C83          2.5560    -0.0080    -3.0590 ca         1 2AH      -0.100500
     43 C91          6.1960    -0.9130     0.2860 c3         1 2AH       0.143700
     44 C92          2.3080    -2.0890     3.6810 c3         1 2AH      -0.091433
     45 C93          7.6460     0.3420    -3.1520 ca         1 2AH      -0.252300
     46 C94          6.7010     1.2920    -2.7970 ca         1 2AH      -0.095000
     47 C95          5.3750     0.9120    -2.6850 ca         1 2AH      -0.229300
     48 C96          5.0250    -0.4140    -2.9460 cp         1 2AH       0.471800
     49 N97          5.9390    -1.3250    -3.2810 nb         1 2AH      -0.673000
     50 C98          7.2080    -0.9540    -3.3780 ca         1 2AH       0.403200
     51 H4          -2.6040     1.4890     0.7610 hn         1 2AH       0.343500
     52 H5          -2.3720     0.2970     3.4260 h1         1 2AH       0.083700
     53 H7          -0.4330     2.4370     1.8620 ha         1 2AH       0.152000
     54 H8           0.3180     4.6430     2.7010 ha         1 2AH       0.131000
     55 H9          -0.9720     5.8210     4.4390 ha         1 2AH       0.129000
     56 H10         -3.0400     4.8220     5.3610 ha         1 2AH       0.131000
     57 H121        -4.9890     2.8350     4.7200 hc         1 2AH       0.058200
     58 H122        -3.8810     1.6650     5.4160 hc         1 2AH       0.058200
     59 H13         -4.7260     0.3490     3.6130 h1         1 2AH       0.054700
     60 H14         -5.9010     2.0010     2.5450 ho         1 2AH       0.402000
     61 H241        -5.0750    -1.4230    -0.4350 hc         1 2AH       0.068200
     62 H242        -5.0740     0.3260    -0.3200 hc         1 2AH       0.068200
     63 H26         -5.3680    -2.5220    -2.5450 ha         1 2AH       0.132500
     64 H27         -5.9490    -2.3770    -4.9310 ha         1 2AH       0.129000
     65 H28         -5.9350    -0.1820    -6.0820 ha         1 2AH       0.129000
     66 H29         -5.3410     1.8590    -4.8130 ha         1 2AH       0.129000
     67 H30         -4.7500     1.7090    -2.4320 ha         1 2AH       0.132500
     68 H36         -1.5920     0.4080    -1.2430 ho         1 2AH       0.449000
     69 H411        -2.8740    -1.9930    -2.1300 h1         1 2AH       0.066700
     70 H412        -2.7230    -2.6780    -0.5200 h1         1 2AH       0.066700
     71 H43         -0.1290    -2.9140     0.0300 hn         1 2AH       0.308500
     72 H441        -0.4990    -3.3300    -2.4470 h1         1 2AH       0.051700
     73 H442        -1.0500    -1.9110    -3.3360 h1         1 2AH       0.051700
     74 H47          1.7840    -2.5980     1.0680 h1         1 2AH       0.082700
     75 H491        -0.1290     0.1940     2.7900 hc         1 2AH       0.041367
     76 H492         0.4890    -0.2150     4.3840 hc         1 2AH       0.041367
     77 H493         1.5480     0.5410     3.2000 hc         1 2AH       0.041367
     78 H501         0.1990    -3.5360     2.6450 hc         1 2AH       0.041367
     79 H502        -0.2850    -2.6310     4.0730 hc         1 2AH       0.041367
     80 H503        -0.9430    -2.1940     2.5080 hc         1 2AH       0.041367
     81 H51          2.6730     0.1900     0.9600 hn         1 2AH       0.343500
     82 H79          1.8410    -3.6830    -2.1800 ha         1 2AH       0.135500
     83 H80          4.1600    -2.9020    -2.3730 ha         1 2AH       0.145000
     84 H82          0.4370     0.2400    -3.1350 ha         1 2AH       0.135500
     85 H83          2.7370     1.0260    -3.3250 ha         1 2AH       0.145000
     86 H911         6.2380    -1.6550    -0.5090 h1         1 2AH       0.048367
     87 H912         6.7640    -0.0380    -0.0180 h1         1 2AH       0.048367
     88 H913         6.6400    -1.3320     1.1900 h1         1 2AH       0.048367
     89 H921         3.1560    -1.4040     3.6630 hc         1 2AH       0.041367
     90 H922         1.9930    -2.1900     4.7210 hc         1 2AH       0.041367
     91 H923         2.6540    -3.0670     3.3420 hc         1 2AH       0.041367
     92 H94          6.9930     2.3150    -2.5960 ha         1 2AH       0.138000
     93 H95          4.6280     1.6330    -2.3840 ha         1 2AH       0.147000
     94 H98          7.9150    -1.7300    -3.6520 h4         1 2AH       0.020100
     95 H93          8.6940     0.5910    -3.2480 ha         1 2AH       0.142000
@<TRIPOS>BOND
     1     1     2 1   
     2     1    15 1   
     3     1    22 1   
     4     1    23 1   
     5     2     3 2   
     6     2     4 1   
     7     4     5 1   
     8     4    51 1   
     9     5     6 1   
    10     5    13 1   
    11     5    52 1   
    12     6     7 ar  
    13     6    11 ar  
    14     7     8 ar  
    15     7    53 1   
    16     8     9 ar  
    17     8    54 1   
    18     9    10 ar  
    19     9    55 1   
    20    10    11 ar  
    21    10    56 1   
    22    11    12 1   
    23    12    13 1   
    24    12    57 1   
    25    12    58 1   
    26    13    14 1   
    27    13    59 1   
    28    14    60 1   
    29    15    16 1   
    30    15    61 1   
    31    15    62 1   
    32    16    17 ar  
    33    16    21 ar  
    34    17    18 ar  
    35    17    63 1   
    36    18    19 ar  
    37    18    64 1   
    38    19    20 ar  
    39    19    65 1   
    40    20    21 ar  
    41    20    66 1   
    42    21    67 1   
    43    22    68 1   
    44    23    24 1   
    45    23    69 1   
    46    23    70 1   
    47    24    25 1   
    48    24    26 1   
    49    25    27 1   
    50    25    71 1   
    51    26    37 1   
    52    26    72 1   
    53    26    73 1   
    54    27    28 2   
    55    27    29 1   
    56    29    30 1   
    57    29    33 1   
    58    29    74 1   
    59    30    31 1   
    60    30    32 1   
    61    30    44 1   
    62    31    75 1   
    63    31    76 1   
    64    31    77 1   
    65    32    78 1   
    66    32    79 1   
    67    32    80 1   
    68    33    34 1   
    69    33    81 1   
    70    34    35 2   
    71    34    36 1   
    72    36    43 1   
    73    37    38 ar  
    74    37    41 ar  
    75    38    39 ar  
    76    38    82 1   
    77    39    40 ar  
    78    39    83 1   
    79    40    42 ar  
    80    40    48 1   
    81    41    42 ar  
    82    41    84 1   
    83    42    85 1   
    84    43    86 1   
    85    43    87 1   
    86    43    88 1   
    87    44    89 1   
    88    44    90 1   
    89    44    91 1   
    90    45    46 ar  
    91    45    50 ar  
    92    45    95 1   
    93    46    47 ar  
    94    46    92 1   
    95    47    48 ar  
    96    47    93 1   
    97    48    49 ar  
    98    49    50 ar  
    99    50    94 1   
@<TRIPOS>SUBSTRUCTURE
     1 2AH         1 TEMP              0 ****  ****    0 ROOT
