@<TRIPOS>MOLECULE
2AH
   95    99     1     0     0
SMALL
No Charge or Current Charge


@<TRIPOS>ATOM
      1 C1          -3.2150    -0.3380    -0.5850 c3         1 2AH       0.120000
      2 C2          -3.1260    -0.4270     0.9800 c          1 2AH       0.577100
      3 O3          -3.2980    -1.4680     1.6070 o          1 2AH      -0.632100
      4 N4          -2.7950     0.7660     1.5940 ns         1 2AH      -0.459900
      5 C5          -2.8220     0.8570     3.0600 c5         1 2AH       0.166000
      6 C6          -2.5090     2.2260     3.6210 ca         1 2AH      -0.105300
      7 C7          -1.4990     3.1140     3.2080 ca         1 2AH      -0.084000
      8 C8          -1.3610     4.3460     3.8760 ca         1 2AH      -0.114000
      9 C9          -2.2270     4.6790     4.9380 ca         1 2AH      -0.106000
     10 C10         -3.2390     3.7830     5.3320 ca         1 2AH      -0.099000
     11 C11         -3.3630     2.5600     4.6540 ca         1 2AH      -0.075300
     12 C12         -4.3870     1.4850     4.9130 c5         1 2AH      -0.070100
     13 C13         -4.3420     0.6970     3.5460 c5         1 2AH       0.142300
     14 O14         -5.3080     1.2410     2.6270 oh         1 2AH      -0.651000
     15 C24         -4.7220    -0.1930    -0.9610 c3         1 2AH      -0.029100
     16 C25         -5.0270    -0.1410    -2.4600 ca         1 2AH      -0.076300
     17 C26         -5.5280    -1.2800    -3.1230 ca         1 2AH      -0.099500
     18 C27         -5.8160    -1.2330    -4.4980 ca         1 2AH      -0.114500
     19 C28         -5.6110    -0.0460    -5.2200 ca         1 2AH      -0.110000
     20 C29         -5.1210     1.0960    -4.5640 ca         1 2AH      -0.114500
     21 C30         -4.8330     1.0490    -3.1890 ca         1 2AH      -0.099500
     22 O36         -2.4800     0.8140    -1.0770 oh         1 2AH      -0.661000
     23 C41         -2.5520    -1.5900    -1.2440 c3         1 2AH       0.146800
     24 N42         -1.0830    -1.4530    -1.4380 n3         1 2AH      -0.514600
     25 N43         -0.3370    -1.5460    -0.2180 ns         1 2AH      -0.367300
     26 C44         -0.5080    -2.3360    -2.4840 c3         1 2AH       0.209100
     27 C45          0.5850    -0.5720     0.1570 c          1 2AH       0.609100
     28 O46          0.5320     0.5690    -0.2970 o          1 2AH      -0.589100
     29 C47          1.7240    -1.0600     1.1110 c3         1 2AH       0.053700
     30 C48          1.3580    -1.0140     2.6430 c3         1 2AH      -0.046000
     31 C49          0.9790     0.4250     3.0770 c3         1 2AH      -0.091433
     32 C50          0.1620    -1.9580     2.9430 c3         1 2AH      -0.091433
     33 N51          2.9500    -0.2860     0.8030 ns         1 2AH      -0.488900
     34 C54          4.2050    -0.8100     0.6850 c          1 2AH       0.640100
     35 O55          4.5000    -1.9830     0.8540 o          1 2AH      -0.548000
     36 O56          5.0700     0.1910     0.3640 os         1 2AH      -0.453100
     37 C78          0.9810    -2.0720    -2.7040 ca         1 2AH      -0.095300
     38 C79          1.9470    -2.9880    -2.2470 ca         1 2AH      -0.096500
     39 C80          3.3160    -2.7070    -2.3930 ca         1 2AH      -0.082500
     40 C81          3.7650    -1.5000    -2.9940 cp         1 2AH      -0.141500
     41 C82          1.4030    -0.8790    -3.3150 ca         1 2AH      -0.096500
     42 C83          2.7720    -0.5960    -3.4580 ca         1 2AH      -0.082500
     43 C91          6.4630    -0.1450     0.2400 c3         1 2AH       0.166900
     44 C92          2.5590    -1.4910     3.5090 c3         1 2AH      -0.091433
     45 C93          7.9560    -0.7300    -3.3600 ca         1 2AH      -0.169000
     46 C94          7.0990     0.3790    -3.3100 ca         1 2AH      -0.077000
     47 C95          5.7200     0.1410    -3.1930 ca         1 2AH      -0.146000
     48 C96          5.2310    -1.1900    -3.1310 cp         1 2AH       0.406500
     49 N97          6.0790    -2.2460    -3.1740 nb         1 2AH      -0.673000
     50 C98          7.4070    -2.0210    -3.2890 ca         1 2AH       0.337900
     51 H4          -2.6810     1.5620     0.9790 hn         1 2AH       0.343500
     52 H5          -2.1780     0.1040     3.5340 h1         1 2AH       0.083700
     53 H7          -0.8370     2.8630     2.3840 ha         1 2AH       0.134000
     54 H8          -0.5840     5.0440     3.5700 ha         1 2AH       0.113000
     55 H9          -2.1160     5.6320     5.4510 ha         1 2AH       0.111000
     56 H10         -3.9150     4.0360     6.1450 ha         1 2AH       0.113000
     57 H121        -5.3820     1.8820     5.1450 hc         1 2AH       0.058200
     58 H122        -4.0850     0.8460     5.7510 hc         1 2AH       0.058200
     59 H13         -4.5730    -0.3640     3.7160 h1         1 2AH       0.054700
     60 H14         -6.1870     1.1660     3.0580 ho         1 2AH       0.441000
     61 H241        -5.2740    -1.0230    -0.5030 hc         1 2AH       0.068200
     62 H242        -5.1140     0.7130    -0.4820 hc         1 2AH       0.068200
     63 H26         -5.6920    -2.2060    -2.5750 ha         1 2AH       0.114500
     64 H27         -6.1980    -2.1170    -5.0040 ha         1 2AH       0.111000
     65 H28         -5.8340    -0.0090    -6.2840 ha         1 2AH       0.111000
     66 H29         -4.9640     2.0170    -5.1210 ha         1 2AH       0.111000
     67 H30         -4.4550     1.9380    -2.6900 ha         1 2AH       0.114500
     68 H36         -1.5620     0.4600    -1.2090 ho         1 2AH       0.488000
     69 H411        -3.0090    -1.7280    -2.2320 h1         1 2AH       0.066700
     70 H412        -2.7910    -2.4960    -0.6720 h1         1 2AH       0.066700
     71 H43         -0.2480    -2.4520     0.2340 hn         1 2AH       0.308500
     72 H441        -0.6530    -3.3890    -2.2090 h1         1 2AH       0.051700
     73 H442        -1.0320    -2.1770    -3.4360 h1         1 2AH       0.051700
     74 H47          1.9160    -2.1060     0.8390 h1         1 2AH       0.082700
     75 H491         0.1140     0.7830     2.5110 hc         1 2AH       0.041367
     76 H492         0.7180     0.4600     4.1420 hc         1 2AH       0.041367
     77 H493         1.8070     1.1250     2.9110 hc         1 2AH       0.041367
     78 H501         0.3740    -2.9810     2.6090 hc         1 2AH       0.041367
     79 H502        -0.0490    -1.9940     4.0190 hc         1 2AH       0.041367
     80 H503        -0.7510    -1.6160     2.4480 hc         1 2AH       0.041367
     81 H51          2.8630     0.7010     0.5970 hn         1 2AH       0.343500
     82 H79          1.6390    -3.9110    -1.7630 ha         1 2AH       0.117500
     83 H80          4.0380    -3.4280    -2.0150 ha         1 2AH       0.127000
     84 H82          0.6660    -0.1590    -3.6630 ha         1 2AH       0.117500
     85 H83          3.0570     0.3340    -3.9420 ha         1 2AH       0.127000
     86 H911         6.6140    -0.9200    -0.5220 h1         1 2AH       0.048367
     87 H912         7.0460     0.7370    -0.0530 h1         1 2AH       0.048367
     88 H913         6.8610    -0.5160     1.1930 h1         1 2AH       0.048367
     89 H921         3.4140    -0.8110     3.4240 hc         1 2AH       0.041367
     90 H922         2.2840    -1.5350     4.5710 hc         1 2AH       0.041367
     91 H923         2.8860    -2.4930     3.2070 hc         1 2AH       0.041367
     92 H94          7.4910     1.3930    -3.3550 ha         1 2AH       0.120000
     93 H95          5.0380     0.9820    -3.1300 ha         1 2AH       0.129000
     94 H98          8.0480    -2.9000    -3.3220 h4         1 2AH       0.020100
     95 H93          9.0310    -0.6000    -3.4500 ha         1 2AH       0.124000
@<TRIPOS>BOND
     1     1     2 1   
     2     1    15 1   
     3     1    22 1   
     4     1    23 1   
     5     2     3 2   
     6     2     4 1   
     7     4     5 1   
     8     4    51 1   
     9     5     6 1   
    10     5    13 1   
    11     5    52 1   
    12     6     7 ar  
    13     6    11 ar  
    14     7     8 ar  
    15     7    53 1   
    16     8     9 ar  
    17     8    54 1   
    18     9    10 ar  
    19     9    55 1   
    20    10    11 ar  
    21    10    56 1   
    22    11    12 1   
    23    12    13 1   
    24    12    57 1   
    25    12    58 1   
    26    13    14 1   
    27    13    59 1   
    28    14    60 1   
    29    15    16 1   
    30    15    61 1   
    31    15    62 1   
    32    16    17 ar  
    33    16    21 ar  
    34    17    18 ar  
    35    17    63 1   
    36    18    19 ar  
    37    18    64 1   
    38    19    20 ar  
    39    19    65 1   
    40    20    21 ar  
    41    20    66 1   
    42    21    67 1   
    43    22    68 1   
    44    23    24 1   
    45    23    69 1   
    46    23    70 1   
    47    24    25 1   
    48    24    26 1   
    49    25    27 1   
    50    25    71 1   
    51    26    37 1   
    52    26    72 1   
    53    26    73 1   
    54    27    28 2   
    55    27    29 1   
    56    29    30 1   
    57    29    33 1   
    58    29    74 1   
    59    30    31 1   
    60    30    32 1   
    61    30    44 1   
    62    31    75 1   
    63    31    76 1   
    64    31    77 1   
    65    32    78 1   
    66    32    79 1   
    67    32    80 1   
    68    33    34 1   
    69    33    81 1   
    70    34    35 2   
    71    34    36 1   
    72    36    43 1   
    73    37    38 ar  
    74    37    41 ar  
    75    38    39 ar  
    76    38    82 1   
    77    39    40 ar  
    78    39    83 1   
    79    40    42 ar  
    80    40    48 1   
    81    41    42 ar  
    82    41    84 1   
    83    42    85 1   
    84    43    86 1   
    85    43    87 1   
    86    43    88 1   
    87    44    89 1   
    88    44    90 1   
    89    44    91 1   
    90    45    46 ar  
    91    45    50 ar  
    92    45    95 1   
    93    46    47 ar  
    94    46    92 1   
    95    47    48 ar  
    96    47    93 1   
    97    48    49 ar  
    98    49    50 ar  
    99    50    94 1   
@<TRIPOS>SUBSTRUCTURE
     1 2AH         1 TEMP              0 ****  ****    0 ROOT
