@<TRIPOS>MOLECULE
2AI
   11    11     1     0     0
SMALL
No Charge or Current Charge


@<TRIPOS>ATOM
      1 CG          -1.4120     0.6570    -0.0200 cc         1 2AI      -0.243000
      2 CD2         -1.3440    -0.7170     0.0160 cd         1 2AI       0.255900
      3 NE2         -0.0260    -1.1370     0.0770 nd         1 2AI      -0.724000
      4 CE1          0.6660    -0.0380     0.0780 cc         1 2AI       0.615400
      5 ND1         -0.0970     1.0800     0.0210 na         1 2AI      -0.334500
      6 NT           1.9940    -0.0140     0.1240 nv         1 2AI      -1.015900
      7 HG          -2.2640     1.3260    -0.0680 h4         1 2AI       0.157000
      8 HD2         -2.1660    -1.4230     0.0010 h4         1 2AI       0.036100
      9 HND1         0.2520     2.0300     0.0190 hn         1 2AI       0.349000
     10 HNT          2.4550    -0.8960    -0.0660 hn         1 2AI       0.451500
     11 HNTA         2.4640     0.8240    -0.1990 hn         1 2AI       0.451500
@<TRIPOS>BOND
     1     1     2 2   
     2     1     5 1   
     3     1     7 1   
     4     2     3 1   
     5     2     8 1   
     6     3     4 2   
     7     4     5 1   
     8     4     6 1   
     9     5     9 1   
    10     6    10 1   
    11     6    11 1   
@<TRIPOS>SUBSTRUCTURE
     1 2AI         1 TEMP              0 ****  ****    0 ROOT
