@<TRIPOS>MOLECULE
2AI
   11    11     1     0     0
SMALL
abcg2


@<TRIPOS>ATOM
      1 CG          -1.4180     0.6450    -0.0160 cc         1 2AI      -0.243000
      2 CD2         -1.3580    -0.7110     0.0090 cd         1 2AI       0.255900
      3 NE2         -0.0530    -1.1400     0.0640 nd         1 2AI      -0.724000
      4 CE1          0.6690    -0.0460     0.0760 cc         1 2AI       0.615400
      5 ND1         -0.1040     1.0600     0.0310 na         1 2AI      -0.334500
      6 NT           2.0370     0.0120     0.1950 nv         1 2AI      -1.015900
      7 HG          -2.2380     1.3400    -0.0650 h4         1 2AI       0.157000
      8 HD2         -2.1810    -1.4090    -0.0130 h4         1 2AI       0.036100
      9 HND1         0.2130     2.0160     0.0400 hn         1 2AI       0.349000
     10 HNT          2.4830    -0.8580    -0.0510 hn         1 2AI       0.451500
     11 HNTA         2.4730     0.7830    -0.2880 hn         1 2AI       0.451500
@<TRIPOS>BOND
     1     1     2 2   
     2     1     5 1   
     3     1     7 1   
     4     2     3 1   
     5     2     8 1   
     6     3     4 2   
     7     4     5 1   
     8     4     6 1   
     9     5     9 1   
    10     6    10 1   
    11     6    11 1   
@<TRIPOS>SUBSTRUCTURE
     1 2AI         1 TEMP              0 ****  ****    0 ROOT
