@<TRIPOS>MOLECULE
2AK
   19    20     1     0     0
SMALL
No Charge or Current Charge


@<TRIPOS>ATOM
      1 Br1         -2.3740     0.9940    -0.0460 br         1 2AK      -0.075100
      2 C5          -0.9070    -0.2360    -0.0100 ca         1 2AK      -0.075900
      3 C4          -1.1330    -1.6290     0.0100 ca         1 2AK      -0.021000
      4 C3          -0.0440    -2.5400     0.0360 ca         1 2AK      -0.119300
      5 C12         -0.3100    -4.0390     0.0540 c3         1 2AK      -0.044800
      6 C2           1.2870    -2.0590     0.0390 ca         1 2AK       0.012000
      7 C6           0.4160     0.2150    -0.0040 ca         1 2AK       0.126600
      8 N7           0.9110     1.5260    -0.0210 ns         1 2AK      -0.402100
      9 C8           2.2830     1.6340    -0.0110 c          1 2AK       0.464000
     10 O11          2.9550     2.6590    -0.0210 o          1 2AK      -0.459000
     11 C9           2.7510     0.1230     0.0180 c          1 2AK       0.510700
     12 C1           1.4850    -0.6710     0.0190 ca         1 2AK      -0.243600
     13 O10          3.9010    -0.3100     0.0350 o          1 2AK      -0.438100
     14 H1          -2.1540    -2.0050     0.0030 ha         1 2AK       0.132000
     15 H2          -0.4150    -4.4280    -0.9650 hc         1 2AK       0.048033
     16 H3           0.5080    -4.5860     0.5390 hc         1 2AK       0.048033
     17 H4          -1.2310    -4.2750     0.6000 hc         1 2AK       0.048033
     18 H5           2.1340    -2.7430     0.0560 ha         1 2AK       0.136000
     19 H6           0.3030     2.3380    -0.0400 hn         1 2AK       0.354500
@<TRIPOS>BOND
     1     1     2 1   
     2     2     3 ar  
     3     2     7 ar  
     4     3     4 ar  
     5     3    14 1   
     6     4     5 1   
     7     4     6 ar  
     8     5    15 1   
     9     5    16 1   
    10     5    17 1   
    11     6    12 ar  
    12     6    18 1   
    13     7     8 1   
    14     7    12 ar  
    15     8     9 1   
    16     8    19 1   
    17     9    10 2   
    18     9    11 1   
    19    11    12 1   
    20    11    13 2   
@<TRIPOS>SUBSTRUCTURE
     1 2AK         1 TEMP              0 ****  ****    0 ROOT
