@<TRIPOS>MOLECULE
2AK
   19    20     1     0     0
SMALL
bcc


@<TRIPOS>ATOM
      1 BR1         -2.3220     0.9440    -0.0980 br         1 2AK      -0.075100
      2 C5          -0.8720    -0.2500    -0.0370 ca         1 2AK      -0.075900
      3 C4          -1.0830    -1.6250    -0.0070 ca         1 2AK      -0.039000
      4 C3          -0.0290    -2.5400     0.0410 ca         1 2AK      -0.119300
      5 C12         -0.3120    -4.0130     0.0520 c3         1 2AK      -0.044800
      6 C2           1.2740    -2.0510     0.0630 ca         1 2AK      -0.006000
      7 C6           0.4230     0.2240    -0.0180 ca         1 2AK       0.126600
      8 N7           0.8860     1.5340    -0.0370 ns         1 2AK      -0.469100
      9 C8           2.2430     1.5840     0.0010 c          1 2AK       0.606500
     10 O11          2.9580     2.5520    -0.0020 o          1 2AK      -0.534500
     11 C9           2.7100     0.1040     0.0490 c          1 2AK       0.510700
     12 C1           1.4830    -0.6840     0.0330 ca         1 2AK      -0.243600
     13 O10          3.8620    -0.2310     0.0900 o          1 2AK      -0.438100
     14 H1          -2.0990    -2.0010    -0.0200 ha         1 2AK       0.150000
     15 H2          -0.6610    -4.3520    -0.9250 hc         1 2AK       0.048033
     16 H3           0.5810    -4.5850     0.3000 hc         1 2AK       0.048033
     17 H4          -1.0850    -4.2650     0.7780 hc         1 2AK       0.048033
     18 H5           2.1170    -2.7290     0.1020 ha         1 2AK       0.154000
     19 H6           0.2930     2.3510    -0.0750 hn         1 2AK       0.354500
@<TRIPOS>BOND
     1     1     2 1   
     2     2     3 ar  
     3     2     7 ar  
     4     3     4 ar  
     5     3    14 1   
     6     4     5 1   
     7     4     6 ar  
     8     5    15 1   
     9     5    16 1   
    10     5    17 1   
    11     6    12 ar  
    12     6    18 1   
    13     7     8 1   
    14     7    12 ar  
    15     8     9 1   
    16     8    19 1   
    17     9    10 2   
    18     9    11 1   
    19    11    12 1   
    20    11    13 2   
@<TRIPOS>SUBSTRUCTURE
     1 2AK         1 TEMP              0 ****  ****    0 ROOT
