@<TRIPOS>MOLECULE
2AL
   15    15     1     0     0
SMALL
abcg2


@<TRIPOS>ATOM
      1 C4          -0.0300    -0.1020    -0.0080 cc         1 2AL       0.476900
      2 C5          -1.0970    -1.1930     0.0120 c          1 2AL       0.429700
      3 O5          -0.9210    -2.3820     0.0180 o          1 2AL      -0.489000
      4 N7          -2.2340    -0.4670     0.0190 ns         1 2AL      -0.501500
      5 C8          -1.9280     0.8990     0.0070 c          1 2AL       0.692400
      6 O8          -2.7440     1.7780     0.0120 o          1 2AL      -0.447000
      7 N9          -0.5430     1.0770    -0.0090 nd         1 2AL      -0.619100
      8 N3           1.2430    -0.4910    -0.0180 ns         1 2AL      -0.409400
      9 C2           2.3710     0.3550    -0.0560 c          1 2AL       0.662100
     10 N1           3.5230    -0.3250    -0.0450 nt         1 2AL      -0.619000
     11 O2           2.2610     1.5600    -0.0980 o          1 2AL      -0.545100
     12 HN7         -3.1730    -0.8410     0.0310 hn         1 2AL       0.365500
     13 HN3          1.3880    -1.4930    -0.0100 hn         1 2AL       0.341500
     14 HN11         4.3890     0.1860    -0.0630 hn         1 2AL       0.331000
     15 HN12         3.5790    -1.3280     0.0100 hn         1 2AL       0.331000
@<TRIPOS>BOND
     1     1     2 1   
     2     1     7 2   
     3     1     8 1   
     4     2     3 2   
     5     2     4 1   
     6     4     5 1   
     7     4    12 1   
     8     5     6 2   
     9     5     7 1   
    10     8     9 1   
    11     8    13 1   
    12     9    10 1   
    13     9    11 2   
    14    10    14 1   
    15    10    15 1   
@<TRIPOS>SUBSTRUCTURE
     1 2AL         1 TEMP              0 ****  ****    0 ROOT
