@<TRIPOS>MOLECULE
2AL
   15    15     1     0     0
SMALL
No Charge or Current Charge


@<TRIPOS>ATOM
      1 C4          -0.0510    -0.1530    -0.0090 cc         1 2AL       0.476900
      2 C5          -1.1040    -1.2040     0.0190 c          1 2AL       0.429700
      3 O5          -1.0440    -2.4260     0.0370 o          1 2AL      -0.489000
      4 N7          -2.2180    -0.4310     0.0200 ns         1 2AL      -0.501500
      5 C8          -1.9750     0.9020    -0.0020 c          1 2AL       0.692400
      6 O8          -2.7980     1.7960    -0.0060 o          1 2AL      -0.447000
      7 N9          -0.5810     1.0600    -0.0210 nd         1 2AL      -0.619100
      8 N3           1.2870    -0.4950    -0.0190 ns         1 2AL      -0.409400
      9 C2           2.3690     0.3360    -0.0430 c          1 2AL       0.662100
     10 N1           3.5450    -0.3160    -0.0470 nt         1 2AL      -0.619000
     11 O2           2.3270     1.5510    -0.0610 o          1 2AL      -0.545100
     12 HN7         -3.1540    -0.8070     0.0360 hn         1 2AL       0.365500
     13 HN3          1.4990    -1.4820    -0.0060 hn         1 2AL       0.341500
     14 HN11         4.3970     0.2250    -0.0640 hn         1 2AL       0.331000
     15 HN12         3.5850    -1.3230    -0.0320 hn         1 2AL       0.331000
@<TRIPOS>BOND
     1     1     2 1   
     2     1     7 2   
     3     1     8 1   
     4     2     3 2   
     5     2     4 1   
     6     4     5 1   
     7     4    12 1   
     8     5     6 2   
     9     5     7 1   
    10     8     9 1   
    11     8    13 1   
    12     9    10 1   
    13     9    11 2   
    14    10    14 1   
    15    10    15 1   
@<TRIPOS>SUBSTRUCTURE
     1 2AL         1 TEMP              0 ****  ****    0 ROOT
