@<TRIPOS>MOLECULE
2AN
   33    35     1     0     0
SMALL
abcg2


@<TRIPOS>ATOM
      1 C1          -0.1520    -1.1190    -0.5190 ca         1 2AN       0.340000
      2 C2           0.0100    -2.4810    -0.6900 ca         1 2AN      -0.179000
      3 C3          -1.0300    -3.3910    -0.4860 ca         1 2AN      -0.096000
      4 C4          -2.2720    -2.9290    -0.1590 ca         1 2AN      -0.144000
      5 C5          -2.4960    -1.5460     0.0090 ca         1 2AN      -0.039000
      6 C6          -3.8090    -1.1230     0.3270 ca         1 2AN      -0.105000
      7 C7          -4.0890     0.1910     0.5320 ca         1 2AN      -0.122000
      8 C8          -3.0500     1.1340     0.4600 ca         1 2AN      -0.057000
      9 N            0.9280    -0.2960    -0.8020 nu         1 2AN      -1.007000
     10 C9          -1.7620     0.7770     0.1520 ca         1 2AN      -0.196500
     11 C10         -1.4320    -0.5970    -0.1210 ca         1 2AN       0.021000
     12 C11          2.2050    -0.4190    -0.2970 ca         1 2AN       0.367000
     13 C12          3.1850     0.4660    -0.7680 ca         1 2AN      -0.169500
     14 C13          4.4850     0.4040    -0.2980 ca         1 2AN      -0.081500
     15 C14          4.8560    -0.5420     0.6510 ca         1 2AN      -0.180000
     16 C15          3.8880    -1.4160     1.1270 ca         1 2AN      -0.081500
     17 C16          2.5800    -1.3620     0.6670 ca         1 2AN      -0.169500
     18 O1           0.3970     1.7740     1.2520 o          1 2AN      -0.680200
     19 O2          -0.0130     2.2570    -1.1450 o          1 2AN      -0.680200
     20 O3          -1.3650     3.3440     0.5710 o          1 2AN      -0.680200
     21 H2           0.9720    -2.8480    -1.0240 ha         1 2AN       0.112000
     22 H3          -0.8490    -4.4490    -0.6250 ha         1 2AN       0.095000
     23 H4          -3.1030    -3.6110    -0.0310 ha         1 2AN       0.094000
     24 H6          -4.5880    -1.8730     0.4000 ha         1 2AN       0.092000
     25 H7          -5.0930     0.5180     0.7690 ha         1 2AN       0.096000
     26 H8          -3.2800     2.1680     0.6660 ha         1 2AN       0.143000
     27 HN           0.7110     0.6160    -1.1980 hn         1 2AN       0.548000
     28 H12          2.9180     1.2130    -1.5060 ha         1 2AN       0.119500
     29 H13          5.2180     1.1040    -0.6820 ha         1 2AN       0.092000
     30 H14          5.8740    -0.5940     1.0140 ha         1 2AN       0.093000
     31 H15          4.1460    -2.1560     1.8740 ha         1 2AN       0.092000
     32 H16          1.8530    -2.0490     1.0770 ha         1 2AN       0.119500
     33 S           -0.5800     2.1490     0.2250 s6         1 2AN       1.243100
@<TRIPOS>BOND
     1     1     2 ar  
     2     1     9 1   
     3     1    11 ar  
     4     2     3 ar  
     5     2    21 1   
     6     3     4 ar  
     7     3    22 1   
     8     4     5 ar  
     9     4    23 1   
    10     5     6 ar  
    11     5    11 ar  
    12     6     7 ar  
    13     6    24 1   
    14     7     8 ar  
    15     7    25 1   
    16     8    10 ar  
    17     8    26 1   
    18     9    12 1   
    19     9    27 1   
    20    10    11 ar  
    21    10    33 1   
    22    12    13 ar  
    23    12    17 ar  
    24    13    14 ar  
    25    13    28 1   
    26    14    15 ar  
    27    14    29 1   
    28    15    16 ar  
    29    15    30 1   
    30    16    17 ar  
    31    16    31 1   
    32    17    32 1   
    33    18    33 1   
    34    19    33 1   
    35    20    33 1   
@<TRIPOS>SUBSTRUCTURE
     1 2AN         1 TEMP              0 ****  ****    0 ROOT
