@<TRIPOS>MOLECULE
2AN
   33    35     1     0     0
SMALL
No Charge or Current Charge


@<TRIPOS>ATOM
      1 C1          -0.1780    -1.0560    -0.3670 ca         1 2AN       0.340000
      2 C2           0.0210    -2.4340    -0.5910 ca         1 2AN      -0.179000
      3 C3          -1.0280    -3.3480    -0.5160 ca         1 2AN      -0.096000
      4 C4          -2.3100    -2.8900    -0.2280 ca         1 2AN      -0.144000
      5 C5          -2.5520    -1.5210    -0.0160 ca         1 2AN      -0.039000
      6 C6          -3.8800    -1.1610     0.2580 ca         1 2AN      -0.105000
      7 C7          -4.2140     0.1690     0.4860 ca         1 2AN      -0.122000
      8 C8          -3.2220     1.1490     0.4450 ca         1 2AN      -0.057000
      9 N            0.9670    -0.2700    -0.5200 nu         1 2AN      -1.007000
     10 C9          -1.8630     0.8390     0.1680 ca         1 2AN      -0.196500
     11 C10         -1.5020    -0.5470    -0.0780 ca         1 2AN       0.021000
     12 C11          2.3070    -0.4280    -0.1730 ca         1 2AN       0.367000
     13 C12          3.2540     0.4410    -0.7390 ca         1 2AN      -0.169500
     14 C13          4.6150     0.3260    -0.4060 ca         1 2AN      -0.081500
     15 C14          5.0310    -0.6580     0.5060 ca         1 2AN      -0.180000
     16 C15          4.0880    -1.5200     1.0890 ca         1 2AN      -0.081500
     17 C16          2.7280    -1.4010     0.7520 ca         1 2AN      -0.169500
     18 O1           0.1580     1.9900     1.3550 o          1 2AN      -0.680200
     19 O2          -0.0250     2.1880    -1.1170 o          1 2AN      -0.680200
     20 O3          -1.5700     3.4670     0.3510 o          1 2AN      -0.680200
     21 H2           1.0080    -2.8060    -0.8490 ha         1 2AN       0.112000
     22 H3          -0.8490    -4.4070    -0.6910 ha         1 2AN       0.095000
     23 H4          -3.1260    -3.6070    -0.1750 ha         1 2AN       0.094000
     24 H6          -4.6610    -1.9170     0.2970 ha         1 2AN       0.092000
     25 H7          -5.2440     0.4430     0.7020 ha         1 2AN       0.096000
     26 H8          -3.5380     2.1700     0.6430 ha         1 2AN       0.143000
     27 HN           0.7580     0.6760    -0.8580 hn         1 2AN       0.548000
     28 H12          2.9370     1.2040    -1.4440 ha         1 2AN       0.119500
     29 H13          5.3440     0.9980    -0.8530 ha         1 2AN       0.092000
     30 H14          6.0830    -0.7480     0.7660 ha         1 2AN       0.093000
     31 H15          4.4080    -2.2750     1.8040 ha         1 2AN       0.092000
     32 H16          2.0040    -2.0580     1.2240 ha         1 2AN       0.119500
     33 S           -0.6840     2.3040     0.1930 s6         1 2AN       1.243100
@<TRIPOS>BOND
     1     1     2 ar  
     2     1     9 1   
     3     1    11 ar  
     4     2     3 ar  
     5     2    21 1   
     6     3     4 ar  
     7     3    22 1   
     8     4     5 ar  
     9     4    23 1   
    10     5     6 ar  
    11     5    11 ar  
    12     6     7 ar  
    13     6    24 1   
    14     7     8 ar  
    15     7    25 1   
    16     8    10 ar  
    17     8    26 1   
    18     9    12 1   
    19     9    27 1   
    20    10    11 ar  
    21    10    33 1   
    22    12    13 ar  
    23    12    17 ar  
    24    13    14 ar  
    25    13    28 1   
    26    14    15 ar  
    27    14    29 1   
    28    15    16 ar  
    29    15    30 1   
    30    16    17 ar  
    31    16    31 1   
    32    17    32 1   
    33    18    33 1   
    34    19    33 1   
    35    20    33 1   
@<TRIPOS>SUBSTRUCTURE
     1 2AN         1 TEMP              0 ****  ****    0 ROOT
