@<TRIPOS>MOLECULE
2AP
   14    14     1     0     0
SMALL
No Charge or Current Charge


@<TRIPOS>ATOM
      1 N1           0.3020    -1.1840     0.0090 na         1 2AP      -0.172700
      2 C2           0.9370     0.0580    -0.0130 ca         1 2AP       0.137800
      3 C3           0.1980     1.2530    -0.0240 ca         1 2AP      -0.204000
      4 C4          -1.2060     1.2140    -0.0130 ca         1 2AP       0.042000
      5 C5          -1.8560    -0.0300     0.0090 ca         1 2AP      -0.151000
      6 C6          -1.0980    -1.2140     0.0200 ca         1 2AP       0.012700
      7 N            2.3090     0.0960    -0.0240 nv         1 2AP      -0.494800
      8 HN1          0.8370    -2.0440     0.0170 hn         1 2AP       0.376000
      9 H3           0.7060     2.2140    -0.0410 ha         1 2AP       0.170000
     10 H4          -1.7840     2.1370    -0.0210 ha         1 2AP       0.167000
     11 H5          -2.9430    -0.0770     0.0180 ha         1 2AP       0.179000
     12 H6          -1.5800    -2.1940     0.0370 h4         1 2AP       0.182000
     13 HN1A         2.8010     0.9830    -0.0400 hn         1 2AP       0.376500
     14 HN2          2.8640    -0.7520    -0.0160 hn         1 2AP       0.376500
@<TRIPOS>BOND
     1     1     2 1   
     2     1     6 2   
     3     1     8 1   
     4     2     3 ar  
     5     2     7 1   
     6     3     4 ar  
     7     3     9 1   
     8     4     5 ar  
     9     4    10 1   
    10     5     6 ar  
    11     5    11 1   
    12     6    12 1   
    13     7    13 1   
    14     7    14 1   
@<TRIPOS>SUBSTRUCTURE
     1 2AP         1 TEMP              0 ****  ****    0 ROOT
