@<TRIPOS>MOLECULE
2AP
   14    14     1     0     0
SMALL
bcc


@<TRIPOS>ATOM
      1 N1           0.2700    -1.0910     0.0130 na         1 2AP      -0.173100
      2 C2           0.9440     0.0740    -0.0050 ca         1 2AP       0.188500
      3 C3           0.1840     1.2630    -0.0180 ca         1 2AP      -0.222000
      4 C4          -1.1790     1.1900    -0.0130 ca         1 2AP       0.024000
      5 C5          -1.8410    -0.0530     0.0060 ca         1 2AP      -0.169000
      6 C6          -1.0810    -1.1770     0.0200 ca         1 2AP      -0.005300
      7 N            2.2680     0.0620    -0.0060 nv         1 2AP      -0.394200
      8 HN1          0.7940    -1.9580     0.0160 hn         1 2AP       0.325700
      9 H3           0.7010     2.2120    -0.0320 ha         1 2AP       0.188000
     10 H4          -1.7580     2.1040    -0.0250 ha         1 2AP       0.185000
     11 H5          -2.9170    -0.1230     0.0110 ha         1 2AP       0.197000
     12 H6          -1.4810    -2.1790     0.0380 h4         1 2AP       0.200000
     13 HN1A         2.7800     0.9270    -0.0580 hn         1 2AP       0.326200
     14 HN2          2.8030    -0.7910    -0.0280 hn         1 2AP       0.326200
@<TRIPOS>BOND
     1     1     2 1   
     2     1     6 2   
     3     1     8 1   
     4     2     3 ar  
     5     2     7 1   
     6     3     4 ar  
     7     3     9 1   
     8     4     5 ar  
     9     4    10 1   
    10     5     6 ar  
    11     5    11 1   
    12     6    12 1   
    13     7    13 1   
    14     7    14 1   
@<TRIPOS>SUBSTRUCTURE
     1 2AP         1 TEMP              0 ****  ****    0 ROOT
