@<TRIPOS>MOLECULE
2AQ
   19    20     1     0     0
SMALL
No Charge or Current Charge


@<TRIPOS>ATOM
      1 N1          -5.9640     2.8180    -1.5270 nv         1 2AQ      -1.072900
      2 C2          -4.6570     3.0410    -1.3860 ca         1 2AQ       0.619900
      3 C3          -4.0530     4.2820    -1.5950 ca         1 2AQ      -0.212000
      4 C4          -2.6680     4.3840    -1.4020 ca         1 2AQ      -0.028000
      5 C5          -1.9720     3.2270    -1.0070 ca         1 2AQ      -0.130000
      6 C6          -0.5800     3.2760    -0.8000 ca         1 2AQ      -0.073000
      7 C7           0.1120     2.1210    -0.4040 ca         1 2AQ      -0.131000
      8 C8          -0.5830     0.9170    -0.2140 ca         1 2AQ      -0.090000
      9 C9          -1.9730     0.8680    -0.4210 ca         1 2AQ      -0.104000
     10 C10         -2.6880     2.0130    -0.8180 ca         1 2AQ       0.326000
     11 N11         -4.0270     1.9370    -1.0100 nb         1 2AQ      -0.762000
     12 HN11        -6.2830     1.9520    -1.1110 hn         1 2AQ       0.479500
     13 HN12        -6.5850     3.6140    -1.4410 hn         1 2AQ       0.479500
     14 H3          -4.6390     5.1420    -1.9010 ha         1 2AQ       0.119000
     15 H4          -2.1530     5.3300    -1.5550 ha         1 2AQ       0.116000
     16 H6          -0.0350     4.2070    -0.9450 ha         1 2AQ       0.110000
     17 H7           1.1880     2.1590    -0.2440 ha         1 2AQ       0.113000
     18 H8          -0.0470     0.0210     0.0930 ha         1 2AQ       0.112000
     19 H9          -2.5050    -0.0680    -0.2720 ha         1 2AQ       0.127000
@<TRIPOS>BOND
     1     1     2 1   
     2     1    12 1   
     3     1    13 1   
     4     2     3 ar  
     5     2    11 ar  
     6     3     4 ar  
     7     3    14 1   
     8     4     5 ar  
     9     4    15 1   
    10     5     6 ar  
    11     5    10 ar  
    12     6     7 ar  
    13     6    16 1   
    14     7     8 ar  
    15     7    17 1   
    16     8     9 ar  
    17     8    18 1   
    18     9    10 ar  
    19     9    19 1   
    20    10    11 ar  
@<TRIPOS>SUBSTRUCTURE
     1 2AQ         1 TEMP              0 ****  ****    0 ROOT
