@<TRIPOS>MOLECULE
2AQ
   19    20     1     0     0
SMALL
abcg2


@<TRIPOS>ATOM
      1 N1          -6.0010     2.8560    -1.5380 nv         1 2AQ      -1.072900
      2 C2          -4.6680     2.9790    -1.3270 ca         1 2AQ       0.619900
      3 C3          -4.0450     4.2470    -1.5520 ca         1 2AQ      -0.212000
      4 C4          -2.7050     4.3560    -1.3820 ca         1 2AQ      -0.028000
      5 C5          -1.9450     3.2230    -0.9910 ca         1 2AQ      -0.130000
      6 C6          -0.5500     3.2610    -0.8030 ca         1 2AQ      -0.073000
      7 C7           0.1330     2.1330    -0.4250 ca         1 2AQ      -0.131000
      8 C8          -0.5680     0.9290    -0.2230 ca         1 2AQ      -0.090000
      9 C9          -1.9270     0.8680    -0.4000 ca         1 2AQ      -0.104000
     10 C10         -2.6540     2.0140    -0.7900 ca         1 2AQ       0.326000
     11 N11         -3.9940     1.9150    -0.9570 nb         1 2AQ      -0.762000
     12 HN11        -6.4600     2.0340    -1.1800 hn         1 2AQ       0.479500
     13 HN12        -6.5690     3.6840    -1.5840 hn         1 2AQ       0.479500
     14 H3          -4.6440     5.0980    -1.8510 ha         1 2AQ       0.119000
     15 H4          -2.2070     5.3040    -1.5460 ha         1 2AQ       0.116000
     16 H6          -0.0220     4.1940    -0.9620 ha         1 2AQ       0.110000
     17 H7           1.2050     2.1640    -0.2830 ha         1 2AQ       0.113000
     18 H8          -0.0260     0.0400     0.0750 ha         1 2AQ       0.112000
     19 H9          -2.4650    -0.0590    -0.2430 ha         1 2AQ       0.127000
@<TRIPOS>BOND
     1     1     2 1   
     2     1    12 1   
     3     1    13 1   
     4     2     3 ar  
     5     2    11 ar  
     6     3     4 ar  
     7     3    14 1   
     8     4     5 ar  
     9     4    15 1   
    10     5     6 ar  
    11     5    10 ar  
    12     6     7 ar  
    13     6    16 1   
    14     7     8 ar  
    15     7    17 1   
    16     8     9 ar  
    17     8    18 1   
    18     9    10 ar  
    19     9    19 1   
    20    10    11 ar  
@<TRIPOS>SUBSTRUCTURE
     1 2AQ         1 TEMP              0 ****  ****    0 ROOT
