@<TRIPOS>MOLECULE
2AS
   17    16     1     0     0
SMALL
bcc


@<TRIPOS>ATOM
      1 C           36.6360    12.3770    31.4350 c          1 2AS       0.929600
      2 O           37.7730    12.3690    30.9270 o          1 2AS      -0.854800
      3 CA          35.6860    11.1940    31.1090 c3         1 2AS       0.036500
      4 N           34.3040    11.6730    31.1560 n8         1 2AS      -0.900800
      5 CB          35.9910    10.5160    29.7710 c3         1 2AS      -0.149700
      6 CG          37.3510     9.7900    29.7320 c          1 2AS       0.962600
      7 OD1         37.6350     9.0660    30.7120 o          1 2AS      -0.876300
      8 C4          34.9150     9.4840    29.4160 c3         1 2AS      -0.059100
      9 OD2         38.0270     9.9060    28.6870 o          1 2AS      -0.876300
     10 OXT         36.1920    13.2370    32.2280 o          1 2AS      -0.854800
     11 HA          35.8750    10.4420    31.8940 h1         1 2AS       0.019700
     12 H           33.6820    10.9120    31.3990 hn         1 2AS       0.304300
     13 H2          34.2500    12.3380    31.9180 hn         1 2AS       0.304300
     14 HB2         35.9820    11.2820    28.9870 hc         1 2AS       0.036700
     15 H4          35.1560     8.9750    28.4800 hc         1 2AS      -0.007633
     16 H4A         34.8260     8.7200    30.1920 hc         1 2AS      -0.007633
     17 H4B         33.9350     9.9450    29.2890 hc         1 2AS      -0.007633
@<TRIPOS>BOND
     1     1     2 1   
     2     1     3 1   
     3     1    10 1   
     4     3     4 1   
     5     3     5 1   
     6     3    11 1   
     7     4    12 1   
     8     4    13 1   
     9     5     6 1   
    10     5     8 1   
    11     5    14 1   
    12     6     7 1   
    13     6     9 1   
    14     8    15 1   
    15     8    16 1   
    16     8    17 1   
@<TRIPOS>SUBSTRUCTURE
     1 2AS         1 TEMP              0 ****  ****    0 ROOT
