@<TRIPOS>MOLECULE
2AV
  111   118     1     0     0
SMALL
abcg2


@<TRIPOS>ATOM
      1 O43        -30.9170   -18.3120     6.9870 o          1 2AV      -0.359000
      2 C42        -30.3920   -17.2230     6.7210 c2         1 2AV       0.373000
      3 N44        -30.0340   -16.8640     5.4690 n          1 2AV      -0.328000
      4 C49        -29.7490   -15.5010     5.0160 c6         1 2AV      -0.019000
      5 C48        -30.8150   -15.0290     4.0290 c6         1 2AV      -0.173250
      6 C47        -30.9750   -16.0000     2.8500 c6         1 2AV      -0.060000
      7 C50        -32.0260   -15.5410     1.8680 ca         1 2AV      -0.074500
      8 C57        -33.3650   -15.4220     2.2420 ca         1 2AV      -0.095500
      9 C54        -34.3400   -14.9880     1.3450 ca         1 2AV      -0.078000
     10 C55        -35.7840   -14.9030     1.7700 c3         1 2AV      -0.050000
     11 N56        -36.3860   -16.2480     1.8430 n8         1 2AV      -0.318000
     12 C53        -33.9620   -14.6650     0.0420 ca         1 2AV      -0.125000
     13 C52        -32.6320   -14.7780    -0.3500 ca         1 2AV      -0.129500
     14 C51        -31.6730   -15.2140     0.5570 ca         1 2AV      -0.122000
     15 C46        -31.2410   -17.4150     3.3870 c6         1 2AV      -0.173250
     16 C60        -30.1570   -17.8310     4.3760 c6         1 2AV      -0.019000
     17 C39        -30.0980   -16.2820     7.8340 c2         1 2AV      -0.331000
     18 S38        -31.2800   -16.1220     9.1100 ss         1 2AV       0.463500
     19 C40        -28.9600   -15.5840     8.0890 c2         1 2AV      -0.126000
     20 C41        -28.9950   -14.8600     9.3270 ca         1 2AV      -0.031000
     21 C37        -30.2290   -15.0560     9.9960 ca         1 2AV      -0.274500
     22 C36        -30.5060   -14.4420    11.2170 ca         1 2AV      -0.086000
     23 C45        -29.5320   -13.6290    11.7700 ca         1 2AV      -0.128000
     24 C34        -28.3060   -13.4260    11.1180 ca         1 2AV      -0.078500
     25 C33        -28.0060   -14.0250     9.8980 ca         1 2AV      -0.418000
     26 SI2        -26.3500   -13.6900     9.0730 s6         1 2AV       1.508500
     27 C1         -26.5870   -12.8960     7.3980 c3         1 2AV      -0.640000
     28 C3         -25.3420   -15.2570     8.9360 c3         1 2AV      -0.640000
     29 O4         -25.5890   -12.6310    10.0700 os         1 2AV      -0.874000
     30 SI5        -24.1950   -11.8470    10.4400 s6         1 2AV       1.508500
     31 C6         -23.1360   -11.6650     8.9100 c3         1 2AV      -0.640000
     32 C7         -23.3030   -12.8170    11.7640 c3         1 2AV      -0.640000
     33 C8         -24.7280   -10.1650    11.0910 ca         1 2AV      -0.418000
     34 C16        -23.8140    -9.2120    11.6000 ca         1 2AV      -0.031000
     35 C12        -24.2870    -7.9730    12.0980 ca         1 2AV      -0.274500
     36 C11        -25.6440    -7.6550    12.1020 ca         1 2AV      -0.086000
     37 C10        -26.5310    -8.5890    11.5970 ca         1 2AV      -0.128000
     38 C9         -26.0760    -9.8210    11.1020 ca         1 2AV      -0.078500
     39 C15        -22.3870    -9.3040    11.7170 c2         1 2AV      -0.126000
     40 C14        -21.8150    -8.2040    12.2750 c2         1 2AV      -0.331000
     41 S13        -22.9850    -6.9680    12.6660 ss         1 2AV       0.463500
     42 C17        -20.3750    -7.8820    12.4590 c2         1 2AV       0.373000
     43 O18        -19.9740    -6.7530    12.1430 o          1 2AV      -0.359000
     44 N19        -19.5550    -8.8480    12.9290 n          1 2AV      -0.328000
     45 C24        -19.9730   -10.0400    13.6710 c6         1 2AV      -0.019000
     46 C23        -19.5470    -9.9320    15.1350 c6         1 2AV      -0.173250
     47 C22        -18.0430    -9.6630    15.2800 c6         1 2AV      -0.060000
     48 C21        -17.6530    -8.4360    14.4410 c6         1 2AV      -0.173250
     49 C20        -18.1140    -8.5970    12.9960 c6         1 2AV      -0.019000
     50 C25        -17.6220    -9.5290    16.7250 ca         1 2AV      -0.074500
     51 C32        -18.1270    -8.5110    17.5340 ca         1 2AV      -0.095500
     52 C29        -17.7490    -8.3800    18.8690 ca         1 2AV      -0.078000
     53 C30        -18.2930    -7.2510    19.7090 c3         1 2AV      -0.050000
     54 N31        -17.6880    -5.9650    19.3130 n8         1 2AV      -0.318000
     55 C28        -16.8410    -9.2920    19.4050 ca         1 2AV      -0.125000
     56 C27        -16.3260   -10.3150    18.6140 ca         1 2AV      -0.129500
     57 C26        -16.7140   -10.4310    17.2840 ca         1 2AV      -0.122000
     58 H1         -28.7640   -15.4950     4.5400 h1         1 2AV       0.097875
     59 H2         -29.7140   -14.8320     5.8680 h1         1 2AV       0.097875
     60 H3         -30.5400   -14.0370     3.6620 hc         1 2AV       0.095875
     61 H4         -31.7670   -14.9310     4.5570 hc         1 2AV       0.095875
     62 H5         -30.0180   -16.0290     2.3180 hc         1 2AV       0.087000
     63 H6         -33.6640   -15.6700     3.2540 ha         1 2AV       0.139000
     64 H7         -36.3180   -14.2350     1.0830 h1         1 2AV       0.074500
     65 H8         -35.8470   -14.4610     2.7680 h1         1 2AV       0.074500
     66 H9         -37.3570   -16.1660     2.1290 hn         1 2AV       0.134250
     67 H10        -36.3980   -16.6590     0.9140 hn         1 2AV       0.134250
     68 H12        -34.7110   -14.3220    -0.6620 ha         1 2AV       0.127000
     69 H13        -32.3430   -14.5250    -1.3630 ha         1 2AV       0.131000
     70 H14        -30.6370   -15.2990     0.2490 ha         1 2AV       0.127000
     71 H15        -32.2140   -17.4480     3.8840 hc         1 2AV       0.095875
     72 H16        -31.2690   -18.1300     2.5620 hc         1 2AV       0.095875
     73 H17        -30.3650   -18.8060     4.8050 h1         1 2AV       0.097875
     74 H18        -29.1890   -17.8740     3.8670 h1         1 2AV       0.097875
     75 H19        -28.1130   -15.5950     7.4200 ha         1 2AV       0.148000
     76 H20        -31.4530   -14.5980    11.7160 ha         1 2AV       0.139000
     77 H21        -29.7200   -13.1400    12.7180 ha         1 2AV       0.132000
     78 H22        -27.5730   -12.7780    11.5800 ha         1 2AV       0.139000
     79 H23        -27.1410   -11.9590     7.4950 h1         1 2AV       0.101417
     80 H24        -25.6170   -12.6750     6.9460 h1         1 2AV       0.101417
     81 H25        -27.1380   -13.5460     6.7160 h1         1 2AV       0.101417
     82 H26        -25.1710   -15.6910     9.9230 h1         1 2AV       0.101417
     83 H27        -25.8450   -16.0040     8.3180 h1         1 2AV       0.101417
     84 H28        -24.3700   -15.0420     8.4820 h1         1 2AV       0.101417
     85 H29        -22.2150   -11.1210     9.1300 h1         1 2AV       0.101417
     86 H30        -22.8630   -12.6480     8.5180 h1         1 2AV       0.101417
     87 H31        -23.6740   -11.1220     8.1300 h1         1 2AV       0.101417
     88 H32        -23.9390   -12.9340    12.6450 h1         1 2AV       0.101417
     89 H33        -23.0490   -13.8120    11.3900 h1         1 2AV       0.101417
     90 H34        -22.3790   -12.3270    12.0770 h1         1 2AV       0.101417
     91 H35        -25.9920    -6.7050    12.4870 ha         1 2AV       0.139000
     92 H36        -27.5910    -8.3670    11.5850 ha         1 2AV       0.132000
     93 H37        -26.8030   -10.5270    10.7220 ha         1 2AV       0.139000
     94 H38        -21.8070   -10.1510    11.3830 ha         1 2AV       0.148000
     95 H39        -21.0480   -10.1560    13.6060 h1         1 2AV       0.097875
     96 H40        -19.5100   -10.9130    13.2030 h1         1 2AV       0.097875
     97 H41        -20.1130    -9.1230    15.6050 hc         1 2AV       0.095875
     98 H42        -19.8120   -10.8590    15.6490 hc         1 2AV       0.095875
     99 H43        -17.5130   -10.5250    14.8620 hc         1 2AV       0.087000
    100 H44        -16.5700    -8.2970    14.4610 hc         1 2AV       0.095875
    101 H45        -18.1080    -7.5360    14.8650 hc         1 2AV       0.095875
    102 H46        -17.6120    -9.4560    12.5400 h1         1 2AV       0.097875
    103 H47        -17.8920    -7.7130    12.4080 h1         1 2AV       0.097875
    104 H48        -18.8320    -7.7970    17.1220 ha         1 2AV       0.139000
    105 H49        -18.1350    -7.4880    20.7670 h1         1 2AV       0.074500
    106 H50        -19.3710    -7.1670    19.5530 h1         1 2AV       0.074500
    107 H51        -18.0730    -5.2220    19.8880 hn         1 2AV       0.134250
    108 H52        -16.6920    -5.9900    19.5110 hn         1 2AV       0.134250
    109 H54        -16.5410    -9.2020    20.4420 ha         1 2AV       0.127000
    110 H55        -15.6220   -11.0220    19.0350 ha         1 2AV       0.131000
    111 H56        -16.3130   -11.2290    16.6720 ha         1 2AV       0.127000
@<TRIPOS>BOND
     1     1     2 1   
     2     2     3 1   
     3     2    17 1   
     4     3     4 1   
     5     3    16 1   
     6     4     5 1   
     7     4    58 1   
     8     4    59 1   
     9     5     6 1   
    10     5    60 1   
    11     5    61 1   
    12     6     7 1   
    13     6    15 1   
    14     6    62 1   
    15     7     8 1   
    16     7    14 1   
    17     8     9 1   
    18     8    63 1   
    19     9    10 1   
    20     9    12 1   
    21    10    11 1   
    22    10    64 1   
    23    10    65 1   
    24    11    66 1   
    25    11    67 1   
    26    12    13 1   
    27    12    68 1   
    28    13    14 1   
    29    13    69 1   
    30    14    70 1   
    31    15    16 1   
    32    15    71 1   
    33    15    72 1   
    34    16    73 1   
    35    16    74 1   
    36    17    18 1   
    37    17    19 1   
    38    18    21 1   
    39    19    20 1   
    40    19    75 1   
    41    20    21 1   
    42    20    25 1   
    43    21    22 1   
    44    22    23 1   
    45    22    76 1   
    46    23    24 1   
    47    23    77 1   
    48    24    25 1   
    49    24    78 1   
    50    25    26 1   
    51    26    27 1   
    52    26    28 1   
    53    26    29 1   
    54    27    79 1   
    55    27    80 1   
    56    27    81 1   
    57    28    82 1   
    58    28    83 1   
    59    28    84 1   
    60    29    30 1   
    61    30    31 1   
    62    30    32 1   
    63    30    33 1   
    64    31    85 1   
    65    31    86 1   
    66    31    87 1   
    67    32    88 1   
    68    32    89 1   
    69    32    90 1   
    70    33    34 1   
    71    33    38 1   
    72    34    35 1   
    73    34    39 1   
    74    35    36 1   
    75    35    41 1   
    76    36    37 1   
    77    36    91 1   
    78    37    38 1   
    79    37    92 1   
    80    38    93 1   
    81    39    40 1   
    82    39    94 1   
    83    40    41 1   
    84    40    42 1   
    85    42    43 1   
    86    42    44 1   
    87    44    45 1   
    88    44    49 1   
    89    45    46 1   
    90    45    95 1   
    91    45    96 1   
    92    46    47 1   
    93    46    97 1   
    94    46    98 1   
    95    47    48 1   
    96    47    50 1   
    97    47    99 1   
    98    48    49 1   
    99    48   100 1   
   100    48   101 1   
   101    49   102 1   
   102    49   103 1   
   103    50    51 1   
   104    50    57 1   
   105    51    52 1   
   106    51   104 1   
   107    52    53 1   
   108    52    55 1   
   109    53    54 1   
   110    53   105 1   
   111    53   106 1   
   112    54   107 1   
   113    54   108 1   
   114    55    56 1   
   115    55   109 1   
   116    56    57 1   
   117    56   110 1   
   118    57   111 1   
@<TRIPOS>SUBSTRUCTURE
     1 2AV         1 TEMP              0 ****  ****    0 ROOT
