@<TRIPOS>MOLECULE
2AV
  111   118     1     0     0
SMALL
No Charge or Current Charge


@<TRIPOS>ATOM
      1 O43        -32.1670   -16.3120     6.8340 o          1 2AV      -0.359000
      2 C42        -31.2770   -15.5890     7.2700 c          1 2AV       0.373000
      3 N44        -30.0350   -15.6200     6.5970 n          1 2AV      -0.328000
      4 C49        -29.6600   -14.4930     5.7060 c6         1 2AV      -0.019000
      5 C48        -29.8530   -14.8640     4.2150 c6         1 2AV      -0.173250
      6 C47        -29.0990   -16.1730     3.8600 c6         1 2AV      -0.060000
      7 C50        -29.2660   -16.5510     2.3800 ca         1 2AV      -0.074500
      8 C57        -30.5400   -16.8300     1.8430 ca         1 2AV      -0.095500
      9 C54        -30.6890   -17.1760     0.4860 ca         1 2AV      -0.078000
     10 C55        -32.0690   -17.4720    -0.0810 c3         1 2AV      -0.050000
     11 N56        -32.4370   -18.8830     0.1000 n8         1 2AV      -0.318000
     12 C53        -29.5530   -17.2430    -0.3410 ca         1 2AV      -0.125000
     13 C52        -28.2800   -16.9660     0.1850 ca         1 2AV      -0.129500
     14 C51        -28.1370   -16.6210     1.5390 ca         1 2AV      -0.122000
     15 C46        -29.5630   -17.3120     4.8060 c6         1 2AV      -0.173250
     16 C60        -29.3810   -16.9180     6.2930 c6         1 2AV      -0.019000
     17 C39        -31.4130   -14.7760     8.3350 c2         1 2AV      -0.331000
     18 S38        -32.9590   -14.6750     9.2100 ss         1 2AV       0.463500
     19 C40        -30.4660   -13.9700     8.8780 c2         1 2AV      -0.126000
     20 C41        -30.9160   -13.2480     9.9800 ca         1 2AV      -0.031000
     21 C37        -32.2490   -13.4960    10.3140 ca         1 2AV      -0.274500
     22 C36        -32.8900   -12.8650    11.3890 ca         1 2AV      -0.086000
     23 C45        -32.1520   -11.9470    12.1540 ca         1 2AV      -0.128000
     24 C34        -30.8040   -11.6780    11.8380 ca         1 2AV      -0.078500
     25 C33        -30.1670   -12.3250    10.7470 ca         1 2AV      -0.418000
     26 SI2        -28.4040   -11.9420    10.3750 s6         1 2AV       1.508500
     27 C1         -28.2130   -11.1600     8.7840 c3         1 2AV      -0.640000
     28 C3         -27.3190   -13.3390    10.6100 c3         1 2AV      -0.640000
     29 O4         -27.9000   -10.7990    11.4020 os         1 2AV      -0.874000
     30 SI5        -26.3710   -10.3740    11.7200 s6         1 2AV       1.508500
     31 C6         -25.5110   -10.3570    10.1560 c3         1 2AV      -0.640000
     32 C7         -25.8130   -11.6700    12.8080 c3         1 2AV      -0.640000
     33 C8         -26.3690    -8.7290    12.5620 ca         1 2AV      -0.418000
     34 C16        -25.2100    -8.0520    13.0340 ca         1 2AV      -0.031000
     35 C12        -25.3450    -6.8070    13.6540 ca         1 2AV      -0.274500
     36 C11        -26.5910    -6.1890    13.8340 ca         1 2AV      -0.086000
     37 C10        -27.7390    -6.8580    13.3690 ca         1 2AV      -0.128000
     38 C9         -27.6230    -8.1160    12.7400 ca         1 2AV      -0.078500
     39 C15        -23.9000    -8.5090    12.9500 c2         1 2AV      -0.126000
     40 C14        -22.9960    -7.6550    13.4930 c2         1 2AV      -0.331000
     41 S13        -23.7680    -6.1880    14.1470 ss         1 2AV       0.463500
     42 C17        -21.6610    -7.8190    13.5600 c          1 2AV       0.373000
     43 O18        -20.8880    -7.0000    14.0480 o          1 2AV      -0.359000
     44 N19        -21.0980    -9.0070    13.0440 n          1 2AV      -0.328000
     45 C24        -21.2300   -10.2700    13.8130 c6         1 2AV      -0.019000
     46 C23        -19.9150   -10.6200    14.5530 c6         1 2AV      -0.173250
     47 C22        -18.7100   -10.6480    13.5750 c6         1 2AV      -0.060000
     48 C21        -18.6140    -9.2890    12.8320 c6         1 2AV      -0.173250
     49 C20        -19.9430    -8.9450    12.1140 c6         1 2AV      -0.019000
     50 C25        -17.3980   -11.0080    14.2890 ca         1 2AV      -0.074500
     51 C32        -16.8830   -10.1880    15.3150 ca         1 2AV      -0.095500
     52 C29        -15.6800   -10.5220    15.9660 ca         1 2AV      -0.078000
     53 C30        -15.1360    -9.6310    17.0720 c3         1 2AV      -0.050000
     54 N31        -14.2980    -8.5510    16.5360 n8         1 2AV      -0.318000
     55 C28        -14.9850   -11.6850    15.5870 ca         1 2AV      -0.125000
     56 C27        -15.4910   -12.5070    14.5670 ca         1 2AV      -0.129500
     57 C26        -16.6920   -12.1710    13.9200 ca         1 2AV      -0.122000
     58 H1         -28.6080   -14.2280     5.8890 h1         1 2AV       0.097875
     59 H2         -30.2660   -13.6070     5.9480 h1         1 2AV       0.097875
     60 H3         -29.4990   -14.0410     3.5790 hc         1 2AV       0.095875
     61 H4         -30.9260   -14.9760     4.0100 hc         1 2AV       0.095875
     62 H5         -28.0290   -16.0010     4.0530 hc         1 2AV       0.087000
     63 H6         -31.4200   -16.7820     2.4800 ha         1 2AV       0.139000
     64 H7         -32.0920   -17.2400    -1.1540 h1         1 2AV       0.074500
     65 H8         -32.8220   -16.8480     0.4190 h1         1 2AV       0.074500
     66 H9         -33.3480   -19.0600    -0.3250 hn         1 2AV       0.134250
     67 H10        -31.7710   -19.4780    -0.3930 hn         1 2AV       0.134250
     68 H12        -29.6560   -17.5100    -1.3910 ha         1 2AV       0.127000
     69 H13        -27.4040   -17.0190    -0.4580 ha         1 2AV       0.131000
     70 H14        -27.1450   -16.4100     1.9340 ha         1 2AV       0.127000
     71 H15        -30.6200   -17.5480     4.6260 hc         1 2AV       0.095875
     72 H16        -29.0000   -18.2320     4.5940 hc         1 2AV       0.095875
     73 H17        -29.7940   -17.7050     6.9420 h1         1 2AV       0.097875
     74 H18        -28.3090   -16.8370     6.5250 h1         1 2AV       0.097875
     75 H19        -29.4550   -13.9100     8.4790 ha         1 2AV       0.148000
     76 H20        -33.9310   -13.0770    11.6270 ha         1 2AV       0.139000
     77 H21        -32.6220   -11.4410    12.9940 ha         1 2AV       0.132000
     78 H22        -30.2560   -10.9600    12.4490 ha         1 2AV       0.139000
     79 H23        -28.3930   -10.0890     8.9210 h1         1 2AV       0.101417
     80 H24        -27.2070   -11.3660     8.4100 h1         1 2AV       0.101417
     81 H25        -28.9650   -11.5970     8.1190 h1         1 2AV       0.101417
     82 H26        -27.3360   -13.5950    11.6740 h1         1 2AV       0.101417
     83 H27        -27.7390   -14.1640    10.0250 h1         1 2AV       0.101417
     84 H28        -26.3150   -13.1070    10.2530 h1         1 2AV       0.101417
     85 H29        -24.5150    -9.9470    10.3530 h1         1 2AV       0.101417
     86 H30        -25.4210   -11.3680     9.7570 h1         1 2AV       0.101417
     87 H31        -26.0600    -9.6890     9.4840 h1         1 2AV       0.101417
     88 H32        -26.6700   -11.9840    13.4120 h1         1 2AV       0.101417
     89 H33        -25.4090   -12.4870    12.2040 h1         1 2AV       0.101417
     90 H34        -25.0290   -11.2400    13.4400 h1         1 2AV       0.101417
     91 H35        -26.6730    -5.2180    14.3210 ha         1 2AV       0.139000
     92 H36        -28.7190    -6.4030    13.4940 ha         1 2AV       0.132000
     93 H37        -28.5060    -8.6360    12.3780 ha         1 2AV       0.139000
     94 H38        -23.6150    -9.4550    12.4910 ha         1 2AV       0.148000
     95 H39        -22.0510   -10.1820    14.5400 h1         1 2AV       0.097875
     96 H40        -21.4930   -11.0840    13.1210 h1         1 2AV       0.097875
     97 H41        -19.7440    -9.8810    15.3470 hc         1 2AV       0.095875
     98 H42        -20.0180   -11.5940    15.0530 hc         1 2AV       0.095875
     99 H43        -18.9160   -11.4220    12.8210 hc         1 2AV       0.087000
    100 H44        -17.7930    -9.3150    12.1030 hc         1 2AV       0.095875
    101 H45        -18.3730    -8.4850    13.5410 hc         1 2AV       0.095875
    102 H46        -20.1120    -9.6550    11.2910 h1         1 2AV       0.097875
    103 H47        -19.8770    -7.9420    11.6670 h1         1 2AV       0.097875
    104 H48        -17.4150    -9.2870    15.6090 ha         1 2AV       0.139000
    105 H49        -14.5330   -10.2260    17.7720 h1         1 2AV       0.074500
    106 H50        -15.9660    -9.1820    17.6340 h1         1 2AV       0.074500
    107 H51        -13.9150    -7.9950    17.3020 hn         1 2AV       0.134250
    108 H52        -13.4970    -8.9490    16.0440 hn         1 2AV       0.134250
    109 H54        -14.0540   -11.9520    16.0830 ha         1 2AV       0.127000
    110 H55        -14.9510   -13.4070    14.2760 ha         1 2AV       0.131000
    111 H56        -17.0730   -12.8170    13.1310 ha         1 2AV       0.127000
@<TRIPOS>BOND
     1     1     2 1   
     2     2     3 1   
     3     2    17 1   
     4     3     4 1   
     5     3    16 1   
     6     4     5 1   
     7     4    58 1   
     8     4    59 1   
     9     5     6 1   
    10     5    60 1   
    11     5    61 1   
    12     6     7 1   
    13     6    15 1   
    14     6    62 1   
    15     7     8 ar  
    16     7    14 ar  
    17     8     9 ar  
    18     8    63 1   
    19     9    10 1   
    20     9    12 ar  
    21    10    11 1   
    22    10    64 1   
    23    10    65 1   
    24    11    66 1   
    25    11    67 1   
    26    12    13 ar  
    27    12    68 1   
    28    13    14 ar  
    29    13    69 1   
    30    14    70 1   
    31    15    16 1   
    32    15    71 1   
    33    15    72 1   
    34    16    73 1   
    35    16    74 1   
    36    17    18 1   
    37    17    19 1   
    38    18    21 1   
    39    19    20 1   
    40    19    75 1   
    41    20    21 ar  
    42    20    25 ar  
    43    21    22 ar  
    44    22    23 ar  
    45    22    76 1   
    46    23    24 ar  
    47    23    77 1   
    48    24    25 ar  
    49    24    78 1   
    50    25    26 1   
    51    26    27 1   
    52    26    28 1   
    53    26    29 1   
    54    27    79 1   
    55    27    80 1   
    56    27    81 1   
    57    28    82 1   
    58    28    83 1   
    59    28    84 1   
    60    29    30 1   
    61    30    31 1   
    62    30    32 1   
    63    30    33 1   
    64    31    85 1   
    65    31    86 1   
    66    31    87 1   
    67    32    88 1   
    68    32    89 1   
    69    32    90 1   
    70    33    34 ar  
    71    33    38 ar  
    72    34    35 ar  
    73    34    39 1   
    74    35    36 ar  
    75    35    41 1   
    76    36    37 ar  
    77    36    91 1   
    78    37    38 ar  
    79    37    92 1   
    80    38    93 1   
    81    39    40 1   
    82    39    94 1   
    83    40    41 1   
    84    40    42 1   
    85    42    43 1   
    86    42    44 1   
    87    44    45 1   
    88    44    49 1   
    89    45    46 1   
    90    45    95 1   
    91    45    96 1   
    92    46    47 1   
    93    46    97 1   
    94    46    98 1   
    95    47    48 1   
    96    47    50 1   
    97    47    99 1   
    98    48    49 1   
    99    48   100 1   
   100    48   101 1   
   101    49   102 1   
   102    49   103 1   
   103    50    51 ar  
   104    50    57 ar  
   105    51    52 ar  
   106    51   104 1   
   107    52    53 1   
   108    52    55 ar  
   109    53    54 1   
   110    53   105 1   
   111    53   106 1   
   112    54   107 1   
   113    54   108 1   
   114    55    56 ar  
   115    55   109 1   
   116    56    57 ar  
   117    56   110 1   
   118    57   111 1   
@<TRIPOS>SUBSTRUCTURE
     1 2AV         1 TEMP              0 ****  ****    0 ROOT
