@<TRIPOS>MOLECULE
2AW
   46    45     1     0     0
SMALL
No Charge or Current Charge


@<TRIPOS>ATOM
      1 OAC         -8.6350     0.7490    -0.1130 o          1 2AW      -0.750500
      2 CAT         -7.6500     1.4390     0.1040 c          1 2AW       0.716000
      3 OAH         -7.6480     2.3880     0.8740 o          1 2AW      -0.750500
      4 CAO         -6.3270     1.0570    -0.5850 c3         1 2AW      -0.202400
      5 CAM         -5.5370     0.0540     0.2900 c3         1 2AW      -0.056400
      6 CAN         -4.1960    -0.3810    -0.3430 c3         1 2AW      -0.073400
      7 CAP         -3.4110    -1.3870     0.5320 c3         1 2AW      -0.138400
      8 CAV         -2.0930    -1.7910    -0.1320 c          1 2AW       0.597100
      9 OAE         -1.9970    -2.6830    -0.9640 o          1 2AW      -0.505000
     10 OAS         -1.0460    -1.0270     0.3070 os         1 2AW      -0.452100
     11 CG1          0.2600    -1.2850    -0.2490 c3         1 2AW       0.184600
     12 CB           1.3190    -0.2850     0.3370 c3         1 2AW       0.081300
     13 CG2          1.2930    -0.3440     1.8960 c3         1 2AW      -0.072100
     14 SAX          0.9070     1.4990    -0.1440 s4         1 2AW       0.399500
     15 OAF         -0.4660     1.8560     0.3780 o          1 2AW      -0.524000
     16 OAG          0.8020     1.1670    -1.8040 oh         1 2AW      -0.602800
     17 CA           2.7570    -0.6210    -0.2220 c3         1 2AW       0.030500
     18 C            3.1160    -2.1550    -0.0470 c          1 2AW       0.723000
     19 OXT          3.0800    -2.8610    -1.0460 o          1 2AW      -0.709500
     20 O            3.4810    -2.5720     1.0450 o          1 2AW      -0.709500
     21 N            3.8090     0.3400     0.2880 n7         1 2AW      -0.824400
     22 CAL          5.1630     0.1600    -0.2610 c3         1 2AW       0.176800
     23 CAK          6.0940     1.2070     0.3600 c3         1 2AW      -0.212400
     24 CAJ          7.5200     1.0090    -0.1460 c          1 2AW       0.582900
     25 OAB          7.9260     1.4750    -1.2060 o          1 2AW      -0.556100
     26 H2          -6.5240     0.5390    -1.5320 hc         1 2AW       0.015200
     27 H3          -5.6810     1.9370    -0.6900 hc         1 2AW       0.015200
     28 H4          -5.3420     0.5070     1.2710 hc         1 2AW       0.037200
     29 H5          -6.1560    -0.8350     0.4680 hc         1 2AW       0.037200
     30 H6          -4.3900    -0.8330    -1.3240 hc         1 2AW       0.037200
     31 H7          -3.5740     0.5050    -0.5170 hc         1 2AW       0.037200
     32 H8          -3.1950    -0.8940     1.4870 hc         1 2AW       0.069200
     33 H9          -4.0240    -2.2820     0.6890 hc         1 2AW       0.069200
     34 H10          0.5560    -2.3120    -0.0020 h1         1 2AW       0.079200
     35 H11          0.2390    -1.2140    -1.3440 h1         1 2AW       0.079200
     36 H12          1.4650    -1.3620     2.2600 hc         1 2AW       0.048700
     37 H13          2.0570     0.3090     2.3330 hc         1 2AW       0.048700
     38 H14          0.3230    -0.0150     2.2880 hc         1 2AW       0.048700
     39 H17          2.7060    -0.4810    -1.3090 h1         1 2AW       0.016700
     40 H19          5.5450    -0.8450    -0.0330 h1         1 2AW       0.042700
     41 H20          5.7450     2.2110     0.0940 hc         1 2AW       0.066200
     42 H21          6.0870     1.0580     1.4450 hc         1 2AW       0.066200
     43 H22          8.1840     0.4060     0.5110 h4         1 2AW      -0.014800
     44 H23          3.5210     1.3040     0.0950 hn         1 2AW       0.353000
     45 H24          5.1560     0.2790    -1.3540 h1         1 2AW       0.042700
     46 H15          1.7230     1.0330    -2.1060 ho         1 2AW       0.455000
@<TRIPOS>BOND
     1     1     2 1   
     2     2     3 1   
     3     2     4 1   
     4     4     5 1   
     5     4    26 1   
     6     4    27 1   
     7     5     6 1   
     8     5    28 1   
     9     5    29 1   
    10     6     7 1   
    11     6    30 1   
    12     6    31 1   
    13     7     8 1   
    14     7    32 1   
    15     7    33 1   
    16     8     9 2   
    17     8    10 1   
    18    10    11 1   
    19    11    12 1   
    20    11    34 1   
    21    11    35 1   
    22    12    13 1   
    23    12    14 1   
    24    12    17 1   
    25    13    36 1   
    26    13    37 1   
    27    13    38 1   
    28    14    15 2   
    29    14    16 1   
    30    16    46 1   
    31    17    18 1   
    32    17    21 1   
    33    17    39 1   
    34    18    19 1   
    35    18    20 1   
    36    21    22 1   
    37    21    44 1   
    38    22    23 1   
    39    22    40 1   
    40    22    45 1   
    41    23    24 1   
    42    23    41 1   
    43    23    42 1   
    44    24    25 2   
    45    24    43 1   
@<TRIPOS>SUBSTRUCTURE
     1 2AW         1 TEMP              0 ****  ****    0 ROOT
