@<TRIPOS>MOLECULE
2AX
   35    37     1     0     0
SMALL
abcg2


@<TRIPOS>ATOM
      1 C4           1.4480    -1.4480     0.1440 c          1 2AX       0.592700
      2 C5           2.4640    -0.4200    -0.1940 ca         1 2AX      -0.192600
      3 C6           3.5710    -0.7680    -0.9690 ca         1 2AX       0.370900
      4 C7           4.4250     1.3370    -0.8540 ca         1 2AX       0.338900
      5 C8           3.3760     1.7880    -0.0720 ca         1 2AX      -0.128000
      6 C10          1.2080     1.3310     1.0870 c          1 2AX       0.579700
      7 C13         -2.3660     0.3850     0.1060 c3         1 2AX      -0.195700
      8 C14         -3.4050     1.4800    -0.2450 c          1 2AX       0.722000
      9 O3          -4.5850     1.2040     0.0550 o          1 2AX      -0.728000
     10 C1          -2.7350    -0.9240    -0.6130 c3         1 2AX      -0.032700
     11 C           -2.9520    -0.7440    -2.1140 c3         1 2AX      -0.079100
     12 C12         -0.9080     0.8140    -0.0980 c3         1 2AX      -0.058400
     13 C11         -0.0040     0.4320     1.0940 c6         1 2AX      -0.147700
     14 C3           0.4040    -1.0450     1.1700 c6         1 2AX      -0.014700
     15 S           -0.9870    -2.1990     1.2380 ss         1 2AX      -0.411000
     16 C2          -1.6910    -2.0250    -0.4270 c3         1 2AX       0.072600
     17 O1           1.2380     2.3860     1.6760 o          1 2AX      -0.504100
     18 C9           2.3690     0.8930     0.2610 ca         1 2AX      -0.089600
     19 O            1.5050    -2.5530    -0.3380 o          1 2AX      -0.504100
     20 N            4.5270     0.0850    -1.2930 nb         1 2AX      -0.675000
     21 H1           3.6820    -1.7830    -1.3300 h4         1 2AX       0.036100
     22 H2           5.2200     2.0160    -1.1390 h4         1 2AX       0.016100
     23 H3           3.3420     2.8170     0.2550 ha         1 2AX       0.144000
     24 H4          -2.5030     0.1880     1.1760 hc         1 2AX       0.047700
     25 H6          -3.6720    -1.2710    -0.1730 hc         1 2AX       0.068700
     26 H7          -2.0660    -0.3260    -2.6000 hc         1 2AX       0.028700
     27 H8          -3.1620    -1.7020    -2.5940 hc         1 2AX       0.028700
     28 H9          -3.7920    -0.0840    -2.3250 hc         1 2AX       0.028700
     29 H10         -0.4950     0.4260    -1.0360 hc         1 2AX       0.058700
     30 H11         -0.8870     1.8990    -0.2020 hc         1 2AX       0.058700
     31 H12         -0.5520     0.6670     2.0100 hc         1 2AX       0.095700
     32 H13          0.9060    -1.1880     2.1360 h1         1 2AX       0.087700
     33 H14         -2.1350    -2.9950    -0.6570 h1         1 2AX       0.055700
     34 H15         -0.8680    -1.9020    -1.1340 h1         1 2AX       0.055700
     35 O2          -3.0100     2.5310    -0.7840 o          1 2AX      -0.728000
@<TRIPOS>BOND
     1     1     2 1   
     2     1    14 1   
     3     1    19 2   
     4     2     3 ar  
     5     2    18 ar  
     6     3    20 ar  
     7     3    21 1   
     8     4     5 ar  
     9     4    20 ar  
    10     4    22 1   
    11     5    18 ar  
    12     5    23 1   
    13     6    13 1   
    14     6    17 2   
    15     6    18 1   
    16     7     8 1   
    17     7    10 1   
    18     7    12 1   
    19     7    24 1   
    20     8     9 1   
    21     8    35 1   
    22    10    11 1   
    23    10    16 1   
    24    10    25 1   
    25    11    26 1   
    26    11    27 1   
    27    11    28 1   
    28    12    13 1   
    29    12    29 1   
    30    12    30 1   
    31    13    14 1   
    32    13    31 1   
    33    14    15 1   
    34    14    32 1   
    35    15    16 1   
    36    16    33 1   
    37    16    34 1   
@<TRIPOS>SUBSTRUCTURE
     1 2AX         1 TEMP              0 ****  ****    0 ROOT
