@<TRIPOS>MOLECULE
2AX
   35    37     1     0     0
SMALL
No Charge or Current Charge


@<TRIPOS>ATOM
      1 C4           1.4770    -1.4980     0.2380 c          1 2AX       0.592700
      2 C5           2.4480    -0.4310    -0.1810 ca         1 2AX      -0.192600
      3 C6           3.5050    -0.7660    -1.0480 ca         1 2AX       0.370900
      4 C7           4.3780     1.3790    -0.9580 ca         1 2AX       0.338900
      5 C8           3.3610     1.8050    -0.0900 ca         1 2AX      -0.128000
      6 C10          1.2370     1.3290     1.2170 c          1 2AX       0.579700
      7 C13         -2.3960     0.3700     0.0820 c3         1 2AX      -0.195700
      8 C14         -3.3940     1.5180    -0.2410 c          1 2AX       0.722000
      9 O3          -4.2170     1.8130     0.6130 o          1 2AX      -0.728000
     10 C1          -2.6980    -0.9500    -0.7170 c3         1 2AX      -0.032700
     11 C           -2.8940    -0.7510    -2.2410 c3         1 2AX      -0.079100
     12 C12         -0.9110     0.8510     0.0170 c3         1 2AX      -0.058400
     13 C11         -0.0110     0.4270     1.2330 c6         1 2AX      -0.147700
     14 C3           0.3680    -1.0900     1.2550 c6         1 2AX      -0.014700
     15 S           -1.1100    -2.2360     1.2730 ss         1 2AX      -0.411000
     16 C2          -1.6690    -2.0870    -0.4860 c3         1 2AX       0.072600
     17 O1           1.2820     2.3670     1.8670 o          1 2AX      -0.504100
     18 C9           2.3620     0.8940     0.3130 ca         1 2AX      -0.089600
     19 O            1.6120    -2.6570    -0.1350 o          1 2AX      -0.504100
     20 N            4.4550     0.1170    -1.4360 nb         1 2AX      -0.675000
     21 H1           3.6110    -1.7760    -1.4440 h4         1 2AX       0.036100
     22 H2           5.1540     2.0700    -1.2840 h4         1 2AX       0.016100
     23 H3           3.3520     2.8370     0.2530 ha         1 2AX       0.144000
     24 H4          -2.6130     0.1120     1.1250 hc         1 2AX       0.047700
     25 H6          -3.6560    -1.3230    -0.3310 hc         1 2AX       0.068700
     26 H7          -2.0250    -0.2550    -2.6900 hc         1 2AX       0.028700
     27 H8          -3.0280    -1.7180    -2.7420 hc         1 2AX       0.028700
     28 H9          -3.7870    -0.1540    -2.4540 hc         1 2AX       0.028700
     29 H10         -0.4570     0.5490    -0.9350 hc         1 2AX       0.058700
     30 H11         -0.9240     1.9490    -0.0150 hc         1 2AX       0.058700
     31 H12         -0.5750     0.6910     2.1370 hc         1 2AX       0.095700
     32 H13          0.8590    -1.2570     2.2240 h1         1 2AX       0.087700
     33 H14         -2.1220    -3.0410    -0.7870 h1         1 2AX       0.055700
     34 H15         -0.7950    -1.9270    -1.1280 h1         1 2AX       0.055700
     35 O2          -3.2710     2.1390    -1.2870 o          1 2AX      -0.728000
@<TRIPOS>BOND
     1     1     2 1   
     2     1    14 1   
     3     1    19 2   
     4     2     3 ar  
     5     2    18 ar  
     6     3    20 ar  
     7     3    21 1   
     8     4     5 ar  
     9     4    20 ar  
    10     4    22 1   
    11     5    18 ar  
    12     5    23 1   
    13     6    13 1   
    14     6    17 2   
    15     6    18 1   
    16     7     8 1   
    17     7    10 1   
    18     7    12 1   
    19     7    24 1   
    20     8     9 1   
    21     8    35 1   
    22    10    11 1   
    23    10    16 1   
    24    10    25 1   
    25    11    26 1   
    26    11    27 1   
    27    11    28 1   
    28    12    13 1   
    29    12    29 1   
    30    12    30 1   
    31    13    14 1   
    32    13    31 1   
    33    14    15 1   
    34    14    32 1   
    35    15    16 1   
    36    16    33 1   
    37    16    34 1   
@<TRIPOS>SUBSTRUCTURE
     1 2AX         1 TEMP              0 ****  ****    0 ROOT
