@<TRIPOS>MOLECULE
2AY
   61    64     1     0     0
SMALL
abcg2


@<TRIPOS>ATOM
      1 N1           6.1430    -1.0130     0.6610 nu         1 2AY      -0.869100
      2 S2           7.3170    -0.4490    -0.3820 s6         1 2AY       1.189100
      3 O3           8.5820    -0.7310     0.2700 o          1 2AY      -0.525500
      4 O4           7.0350    -1.0100    -1.6910 o          1 2AY      -0.525500
      5 C5           7.0890     1.3110    -0.4700 c3         1 2AY      -0.383100
      6 C6           4.7760    -0.8870     0.3180 ca         1 2AY       0.213000
      7 C7           4.2370    -1.6810    -0.7040 ca         1 2AY      -0.049000
      8 C8           2.9040    -1.5830    -1.0310 ca         1 2AY      -0.109000
      9 C9           2.0600    -0.7150    -0.3290 ca         1 2AY       0.021200
     10 C10          0.6610    -0.5900    -0.6200 cc         1 2AY      -0.280200
     11 C11         -0.0990     0.2390     0.1090 cd         1 2AY       0.213900
     12 O12          0.4310     0.9780     1.1190 os         1 2AY      -0.317200
     13 C13          1.7400     0.9610     1.4620 c          1 2AY       0.682700
     14 O14          2.0890     1.6800     2.3620 o          1 2AY      -0.485000
     15 C15          2.6020     0.0580     0.7050 ca         1 2AY      -0.189600
     16 C16          3.9590    -0.0180     1.0150 ca         1 2AY      -0.072000
     17 C17         -1.5490     0.4120    -0.0540 ca         1 2AY      -0.113800
     18 C18         -2.1470     1.6800    -0.1060 ca         1 2AY       0.161100
     19 C19         -3.5420     1.8100    -0.1750 ca         1 2AY      -0.081300
     20 C20         -4.2790     0.6290    -0.2480 ca         1 2AY      -0.077000
     21 C21         -3.7060    -0.6410    -0.2600 ca         1 2AY      -0.046800
     22 C22         -2.3270    -0.7370    -0.1360 ca         1 2AY      -0.039000
     23 C23         -4.5640    -1.8300    -0.4130 cc         1 2AY      -0.161400
     24 C24         -4.3440    -2.9830     0.4380 c          1 2AY       0.555200
     25 O25         -3.4790    -3.0810     1.3040 o          1 2AY      -0.554000
     26 N26         -5.2230    -4.0250     0.2190 ns         1 2AY      -0.362100
     27 C28         -6.2230    -4.0380    -0.6890 cc         1 2AY      -0.027400
     28 C29         -6.4360    -2.9610    -1.4850 cd         1 2AY      -0.298000
     29 C30         -5.5800    -1.8490    -1.3290 cd         1 2AY      -0.081000
     30 C31         -4.2510     3.1700    -0.1330 c3         1 2AY       0.013300
     31 C32         -3.8170     4.0710    -1.3000 c3         1 2AY      -0.085767
     32 C33         -5.7730     3.0130    -0.2380 c3         1 2AY      -0.085767
     33 C34         -3.9620     3.8680     1.2040 c3         1 2AY      -0.085767
     34 O35         -1.3630     2.7880    -0.0610 os         1 2AY      -0.352100
     35 C36         -0.5650     3.0420    -1.2110 c3         1 2AY       0.152900
     36 H1           6.3540    -0.7730     1.6250 hn         1 2AY       0.491000
     37 H2           7.2550     1.7430     0.5140 h1         1 2AY       0.104033
     38 H3           7.8170     1.7040    -1.1780 h1         1 2AY       0.104033
     39 H4           6.0820     1.5310    -0.8180 h1         1 2AY       0.104033
     40 H5           4.8670    -2.3870    -1.2250 ha         1 2AY       0.149000
     41 H6           2.4980    -2.1970    -1.8240 ha         1 2AY       0.129000
     42 H7           0.2180    -1.1510    -1.4290 ha         1 2AY       0.208000
     43 H8           4.3690     0.5960     1.8080 ha         1 2AY       0.135000
     44 H9          -5.3560     0.6820    -0.2920 ha         1 2AY       0.118000
     45 H10         -1.8420    -1.7020    -0.0980 ha         1 2AY       0.136000
     46 H11         -5.0950    -4.8410     0.8020 hn         1 2AY       0.329500
     47 H12         -6.8140    -4.9410    -0.7300 h4         1 2AY       0.202000
     48 H13         -7.2300    -2.9640    -2.2150 ha         1 2AY       0.203000
     49 H14         -5.7300    -0.9870    -1.9690 ha         1 2AY       0.189000
     50 H15         -4.4780     4.9380    -1.3550 hc         1 2AY       0.037589
     51 H16         -2.8040     4.4490    -1.1870 hc         1 2AY       0.037589
     52 H17         -3.8840     3.5450    -2.2540 hc         1 2AY       0.037589
     53 H18         -6.2330     4.0010    -0.1880 hc         1 2AY       0.037589
     54 H19         -6.0800     2.5580    -1.1810 hc         1 2AY       0.037589
     55 H20         -6.1910     2.4250     0.5810 hc         1 2AY       0.037589
     56 H21         -4.3240     3.2690     2.0420 hc         1 2AY       0.037589
     57 H22         -2.9020     4.0610     1.3550 hc         1 2AY       0.037589
     58 H23         -4.4830     4.8270     1.2370 hc         1 2AY       0.037589
     59 H24          0.2370     2.3110    -1.3390 h1         1 2AY       0.037033
     60 H25         -1.1660     3.0580    -2.1220 h1         1 2AY       0.037033
     61 H26         -0.1160     4.0230    -1.0690 h1         1 2AY       0.037033
@<TRIPOS>BOND
     1     1     2 1   
     2     1     6 1   
     3     1    36 1   
     4     2     3 2   
     5     2     4 2   
     6     2     5 1   
     7     5    37 1   
     8     5    38 1   
     9     5    39 1   
    10     6     7 ar  
    11     6    16 ar  
    12     7     8 ar  
    13     7    40 1   
    14     8     9 ar  
    15     8    41 1   
    16     9    10 1   
    17     9    15 ar  
    18    10    11 2   
    19    10    42 1   
    20    11    12 1   
    21    11    17 1   
    22    12    13 1   
    23    13    14 2   
    24    13    15 1   
    25    15    16 ar  
    26    16    43 1   
    27    17    18 ar  
    28    17    22 ar  
    29    18    19 ar  
    30    18    34 1   
    31    19    20 ar  
    32    19    30 1   
    33    20    21 ar  
    34    20    44 1   
    35    21    22 ar  
    36    21    23 1   
    37    22    45 1   
    38    23    24 1   
    39    23    29 2   
    40    24    25 2   
    41    24    26 1   
    42    26    27 1   
    43    26    46 1   
    44    27    28 2   
    45    27    47 1   
    46    28    29 1   
    47    28    48 1   
    48    29    49 1   
    49    30    31 1   
    50    30    32 1   
    51    30    33 1   
    52    31    50 1   
    53    31    51 1   
    54    31    52 1   
    55    32    53 1   
    56    32    54 1   
    57    32    55 1   
    58    33    56 1   
    59    33    57 1   
    60    33    58 1   
    61    34    35 1   
    62    35    59 1   
    63    35    60 1   
    64    35    61 1   
@<TRIPOS>SUBSTRUCTURE
     1 2AY         1 TEMP              0 ****  ****    0 ROOT
