@<TRIPOS>MOLECULE
2AY
   61    64     1     0     0
SMALL
No Charge or Current Charge


@<TRIPOS>ATOM
      1 N1           6.2390    -0.2720     0.8060 nu         1 2AY      -0.869100
      2 S2           7.5540    -0.9580     0.0560 s6         1 2AY       1.189100
      3 O3           8.7150    -0.2980     0.6520 o          1 2AY      -0.525500
      4 O4           7.3870    -2.4090     0.1580 o          1 2AY      -0.525500
      5 C5           7.4200    -0.4600    -1.6480 c3         1 2AY      -0.383100
      6 C6           4.8740    -0.3770     0.5110 ca         1 2AY       0.213000
      7 C7           4.3300    -1.4510    -0.2240 ca         1 2AY      -0.049000
      8 C8           2.9500    -1.5010    -0.4900 ca         1 2AY      -0.109000
      9 C9           2.1000    -0.4870    -0.0170 ca         1 2AY       0.021200
     10 C10          0.6910    -0.5030    -0.3250 cc         1 2AY      -0.280200
     11 C11         -0.1110     0.5190     0.1560 cd         1 2AY       0.213900
     12 O12          0.3370     1.3740     1.1420 os         1 2AY      -0.317200
     13 C13          1.6860     1.6300     1.2320 c          1 2AY       0.682700
     14 O14          2.0980     2.5630     1.9090 o          1 2AY      -0.485000
     15 C15          2.6190     0.5740     0.7170 ca         1 2AY      -0.189600
     16 C16          4.0080     0.6270     0.9810 ca         1 2AY      -0.072000
     17 C17         -1.5800     0.6010    -0.0540 ca         1 2AY      -0.113800
     18 C18         -2.3050     1.8260     0.0510 ca         1 2AY       0.161100
     19 C19         -3.7350     1.8490    -0.0090 ca         1 2AY      -0.081300
     20 C20         -4.3950     0.6200    -0.2710 ca         1 2AY      -0.077000
     21 C21         -3.6870    -0.5780    -0.4460 ca         1 2AY      -0.046800
     22 C22         -2.2940    -0.5840    -0.3240 ca         1 2AY      -0.039000
     23 C23         -4.4040    -1.8270    -0.7150 cc         1 2AY      -0.161400
     24 C24         -4.2610    -3.0330     0.1400 c          1 2AY       0.555200
     25 O25         -3.5550    -3.1020     1.1350 o          1 2AY      -0.554000
     26 N26         -5.0080    -4.1050    -0.2760 ns         1 2AY      -0.362100
     27 C28         -5.8400    -4.1270    -1.3830 cc         1 2AY      -0.027400
     28 C29         -5.9630    -3.0010    -2.1720 cd         1 2AY      -0.298000
     29 C30         -5.2240    -1.8100    -1.8330 cd         1 2AY      -0.081000
     30 C31         -4.5650     3.1650     0.2020 c3         1 2AY       0.013300
     31 C32         -4.2750     4.1900    -0.9310 c3         1 2AY      -0.085767
     32 C33         -6.1050     2.9210     0.1920 c3         1 2AY      -0.085767
     33 C34         -4.2340     3.7950     1.5860 c3         1 2AY      -0.085767
     34 O35         -1.6190     3.0170     0.1620 os         1 2AY      -0.352100
     35 C36         -0.7780     3.4680    -0.9180 c3         1 2AY       0.152900
     36 H1           6.5780     0.5740     1.2450 hn         1 2AY       0.491000
     37 H2           7.4190     0.6340    -1.6730 h1         1 2AY       0.104033
     38 H3           8.2870    -0.8680    -2.1770 h1         1 2AY       0.104033
     39 H4           6.4860    -0.8680    -2.0460 h1         1 2AY       0.104033
     40 H5           4.9600    -2.2530    -0.5920 ha         1 2AY       0.149000
     41 H6           2.5440    -2.3280    -1.0670 ha         1 2AY       0.129000
     42 H7           0.2900    -1.2380    -1.0150 ha         1 2AY       0.208000
     43 H8           4.4180     1.4530     1.5580 ha         1 2AY       0.135000
     44 H9          -5.4750     0.5590    -0.3420 ha         1 2AY       0.118000
     45 H10         -1.7780    -1.5360    -0.4040 ha         1 2AY       0.136000
     46 H11         -4.9200    -4.9340     0.3000 hn         1 2AY       0.329500
     47 H12         -6.3450    -5.0790    -1.5380 h4         1 2AY       0.202000
     48 H13         -6.6130    -3.0150    -3.0450 ha         1 2AY       0.203000
     49 H14         -5.3070    -0.9190    -2.4530 ha         1 2AY       0.189000
     50 H15         -4.9800     5.0290    -0.8910 hc         1 2AY       0.037589
     51 H16         -3.2740     4.6220    -0.8520 hc         1 2AY       0.037589
     52 H17         -4.3700     3.7160    -1.9150 hc         1 2AY       0.037589
     53 H18         -6.6540     3.8520     0.3810 hc         1 2AY       0.037589
     54 H19         -6.4430     2.5420    -0.7800 hc         1 2AY       0.037589
     55 H20         -6.4000     2.2080     0.9720 hc         1 2AY       0.037589
     56 H21         -4.3870     3.0630     2.3880 hc         1 2AY       0.037589
     57 H22         -3.2020     4.1530     1.6490 hc         1 2AY       0.037589
     58 H23         -4.8810     4.6570     1.7900 hc         1 2AY       0.037589
     59 H24          0.0490     2.7740    -1.1080 h1         1 2AY       0.037033
     60 H25         -1.3580     3.5640    -1.8450 h1         1 2AY       0.037033
     61 H26         -0.3490     4.4490    -0.6800 h1         1 2AY       0.037033
@<TRIPOS>BOND
     1     1     2 1   
     2     1     6 1   
     3     1    36 1   
     4     2     3 2   
     5     2     4 2   
     6     2     5 1   
     7     5    37 1   
     8     5    38 1   
     9     5    39 1   
    10     6     7 ar  
    11     6    16 ar  
    12     7     8 ar  
    13     7    40 1   
    14     8     9 ar  
    15     8    41 1   
    16     9    10 1   
    17     9    15 ar  
    18    10    11 2   
    19    10    42 1   
    20    11    12 1   
    21    11    17 1   
    22    12    13 1   
    23    13    14 2   
    24    13    15 1   
    25    15    16 ar  
    26    16    43 1   
    27    17    18 ar  
    28    17    22 ar  
    29    18    19 ar  
    30    18    34 1   
    31    19    20 ar  
    32    19    30 1   
    33    20    21 ar  
    34    20    44 1   
    35    21    22 ar  
    36    21    23 1   
    37    22    45 1   
    38    23    24 1   
    39    23    29 2   
    40    24    25 2   
    41    24    26 1   
    42    26    27 1   
    43    26    46 1   
    44    27    28 2   
    45    27    47 1   
    46    28    29 1   
    47    28    48 1   
    48    29    49 1   
    49    30    31 1   
    50    30    32 1   
    51    30    33 1   
    52    31    50 1   
    53    31    51 1   
    54    31    52 1   
    55    32    53 1   
    56    32    54 1   
    57    32    55 1   
    58    33    56 1   
    59    33    57 1   
    60    33    58 1   
    61    34    35 1   
    62    35    59 1   
    63    35    60 1   
    64    35    61 1   
@<TRIPOS>SUBSTRUCTURE
     1 2AY         1 TEMP              0 ****  ****    0 ROOT
