@<TRIPOS>MOLECULE
2B2
   34    35     1     0     0
SMALL
No Charge or Current Charge


@<TRIPOS>ATOM
      1 F3           6.5970    -0.8580    -0.2490 f          1 2B2      -0.118000
      2 C14          6.1410     0.3930    -0.4810 c3         1 2B2       0.304000
      3 F1           6.6110     1.2000     0.4970 f          1 2B2      -0.118000
      4 F2           6.6620     0.8150    -1.6540 f          1 2B2      -0.118000
      5 C13          4.6000     0.4220    -0.5320 c3         1 2B2      -0.179400
      6 C12          3.9260    -0.0490     0.7730 c3         1 2B2       0.113000
      7 N2           2.4650     0.0130     0.6810 ns         1 2B2      -0.508900
      8 C11          1.6740    -0.9230     0.0470 c          1 2B2       0.613700
      9 O            2.1640    -1.9140    -0.4760 o          1 2B2      -0.598100
     10 C8           0.1810    -0.6600     0.0380 ca         1 2B2      -0.148600
     11 C7          -0.6840    -1.5840    -0.5880 ca         1 2B2      -0.076000
     12 C6          -2.0730    -1.3740    -0.6160 ca         1 2B2      -0.099000
     13 C9          -0.3900     0.4930     0.6290 ca         1 2B2      -0.076000
     14 C10         -1.7800     0.7010     0.5990 ca         1 2B2      -0.099000
     15 C5          -2.6450    -0.2370    -0.0040 ca         1 2B2      -0.091500
     16 C3          -4.0950     0.0190    -0.0570 cc         1 2B2       0.338500
     17 N1          -4.6320     1.2740     0.0830 nc         1 2B2      -0.645000
     18 C4          -4.9780    -1.0240    -0.2090 cd         1 2B2      -0.254000
     19 S           -6.6280    -0.4250    -0.2110 ss         1 2B2      -0.032400
     20 C2          -5.9520     1.1870     0.0150 cd         1 2B2       0.447700
     21 C1          -6.8190     2.4060     0.1350 c3         1 2B2      -0.131400
     22 H1           4.2730     1.4440    -0.7580 hc         1 2B2       0.088200
     23 H2           4.2650    -0.2100    -1.3620 hc         1 2B2       0.088200
     24 H3           4.2280    -1.0810     1.0010 h1         1 2B2       0.066700
     25 H4           4.2490     0.5870     1.6080 h1         1 2B2       0.066700
     26 H5           1.9910     0.8030     1.0990 hn         1 2B2       0.321500
     27 H6          -0.2800    -2.4750    -1.0650 ha         1 2B2       0.122500
     28 H7          -2.6960    -2.1010    -1.1290 ha         1 2B2       0.127000
     29 H8           0.2270     1.2430     1.1160 ha         1 2B2       0.122500
     30 H9          -2.1850     1.5990     1.0600 ha         1 2B2       0.127000
     31 H10         -4.7740    -2.0820    -0.3020 h4         1 2B2       0.164000
     32 H11         -6.5720     3.1380    -0.6430 hc         1 2B2       0.060033
     33 H12         -7.8790     2.1480     0.0300 hc         1 2B2       0.060033
     34 H13         -6.6830     2.8860     1.1100 hc         1 2B2       0.060033
@<TRIPOS>BOND
     1     1     2 1   
     2     2     3 1   
     3     2     4 1   
     4     2     5 1   
     5     5     6 1   
     6     5    22 1   
     7     5    23 1   
     8     6     7 1   
     9     6    24 1   
    10     6    25 1   
    11     7     8 1   
    12     7    26 1   
    13     8     9 2   
    14     8    10 1   
    15    10    11 ar  
    16    10    13 ar  
    17    11    12 ar  
    18    11    27 1   
    19    12    15 ar  
    20    12    28 1   
    21    13    14 ar  
    22    13    29 1   
    23    14    15 ar  
    24    14    30 1   
    25    15    16 1   
    26    16    17 1   
    27    16    18 2   
    28    17    20 2   
    29    18    19 1   
    30    18    31 1   
    31    19    20 1   
    32    20    21 1   
    33    21    32 1   
    34    21    33 1   
    35    21    34 1   
@<TRIPOS>SUBSTRUCTURE
     1 2B2         1 TEMP              0 ****  ****    0 ROOT
