@<TRIPOS>MOLECULE
2B2
   34    35     1     0     0
SMALL
abcg2


@<TRIPOS>ATOM
      1 F3           6.4510    -0.8770    -0.3890 f          1 2B2      -0.118000
      2 C14          6.0200     0.3950    -0.4150 c3         1 2B2       0.304000
      3 F1           6.5550     0.9980     0.6590 f          1 2B2      -0.118000
      4 F2           6.5760     0.9670    -1.4930 f          1 2B2      -0.118000
      5 C13          4.5210     0.4920    -0.4400 c3         1 2B2      -0.179400
      6 C12          3.8580    -0.1270     0.7930 c3         1 2B2       0.113000
      7 N2           2.4210    -0.0140     0.7310 ns         1 2B2      -0.508900
      8 C11          1.6630    -0.8620     0.0140 c          1 2B2       0.613700
      9 O            2.1430    -1.8080    -0.5960 o          1 2B2      -0.598100
     10 C8           0.1900    -0.6090     0.0060 ca         1 2B2      -0.148600
     11 C7          -0.6500    -1.6550    -0.3740 ca         1 2B2      -0.076000
     12 C6          -2.0190    -1.4850    -0.4160 ca         1 2B2      -0.099000
     13 C9          -0.3840     0.6190     0.3230 ca         1 2B2      -0.076000
     14 C10         -1.7570     0.7950     0.2720 ca         1 2B2      -0.099000
     15 C5          -2.5990    -0.2550    -0.0960 ca         1 2B2      -0.091500
     16 C3          -4.0520    -0.0570    -0.1510 cc         1 2B2       0.338500
     17 N1          -4.5770     1.1700     0.1640 nc         1 2B2      -0.645000
     18 C4          -4.9800    -0.9950    -0.4980 cd         1 2B2      -0.254000
     19 S           -6.5480    -0.3210    -0.4280 ss         1 2B2      -0.032400
     20 C2          -5.8640     1.1930     0.0660 cd         1 2B2       0.447700
     21 C1          -6.7180     2.3830     0.3230 c3         1 2B2      -0.131400
     22 H1           4.2480     1.5470    -0.5170 hc         1 2B2       0.088200
     23 H2           4.1640    -0.0040    -1.3440 hc         1 2B2       0.088200
     24 H3           4.1330    -1.1760     0.8940 h1         1 2B2       0.066700
     25 H4           4.1820     0.3830     1.6980 h1         1 2B2       0.066700
     26 H5           1.9920     0.7280     1.2580 hn         1 2B2       0.321500
     27 H6          -0.2270    -2.6160    -0.6360 ha         1 2B2       0.122500
     28 H7          -2.6370    -2.3240    -0.7080 ha         1 2B2       0.127000
     29 H8           0.2240     1.4730     0.5930 ha         1 2B2       0.122500
     30 H9          -2.1780     1.7600     0.5150 ha         1 2B2       0.127000
     31 H10         -4.8310    -2.0240    -0.7820 h4         1 2B2       0.164000
     32 H11         -7.1510     2.7610    -0.6050 hc         1 2B2       0.060033
     33 H12         -7.5410     2.1470     0.9970 hc         1 2B2       0.060033
     34 H13         -6.1180     3.1740     0.7690 hc         1 2B2       0.060033
@<TRIPOS>BOND
     1     1     2 1   
     2     2     3 1   
     3     2     4 1   
     4     2     5 1   
     5     5     6 1   
     6     5    22 1   
     7     5    23 1   
     8     6     7 1   
     9     6    24 1   
    10     6    25 1   
    11     7     8 1   
    12     7    26 1   
    13     8     9 2   
    14     8    10 1   
    15    10    11 ar  
    16    10    13 ar  
    17    11    12 ar  
    18    11    27 1   
    19    12    15 ar  
    20    12    28 1   
    21    13    14 ar  
    22    13    29 1   
    23    14    15 ar  
    24    14    30 1   
    25    15    16 1   
    26    16    17 1   
    27    16    18 2   
    28    17    20 2   
    29    18    19 1   
    30    18    31 1   
    31    19    20 1   
    32    20    21 1   
    33    21    32 1   
    34    21    33 1   
    35    21    34 1   
@<TRIPOS>SUBSTRUCTURE
     1 2B2         1 TEMP              0 ****  ****    0 ROOT
