@<TRIPOS>MOLECULE
2B3
   48    49     1     0     0
SMALL
No Charge or Current Charge


@<TRIPOS>ATOM
      1 F3          -7.9110     2.6470    -1.1580 f          1 2B3      -0.117333
      2 C17         -7.4710     1.6630    -1.9730 c3         1 2B3       0.305000
      3 F1          -8.3200     0.6160    -1.8650 f          1 2B3      -0.117333
      4 F2          -7.5330     2.1180    -3.2450 f          1 2B3      -0.117333
      5 C16         -6.0300     1.2480    -1.6160 c3         1 2B3      -0.179400
      6 C15         -5.8740     0.7140    -0.1770 c3         1 2B3       0.109000
      7 N3          -4.4860     0.3500     0.1180 ns         1 2B3      -0.512900
      8 C14         -3.8770    -0.8220    -0.2790 c          1 2B3       0.615700
      9 O3          -4.4910    -1.6750    -0.9060 o          1 2B3      -0.589100
     10 C11         -2.4190    -0.9960     0.1030 ca         1 2B3      -0.151600
     11 C10         -1.7390    -2.1770    -0.2690 ca         1 2B3      -0.077000
     12 C9          -0.3890    -2.3730     0.0680 ca         1 2B3      -0.098000
     13 C12         -1.6990    -0.0090     0.8160 ca         1 2B3      -0.077000
     14 C13         -0.3480    -0.2070     1.1500 ca         1 2B3      -0.098000
     15 C8           0.3220    -1.3990     0.8020 ca         1 2B3      -0.091500
     16 C6           1.7480    -1.5700     1.1300 cc         1 2B3       0.338500
     17 N2           2.5770    -0.5130     1.4030 nc         1 2B3      -0.645000
     18 C7           2.2910    -2.8290     1.2220 cd         1 2B3      -0.269000
     19 S2           3.9890    -2.7290     1.6530 ss         1 2B3       0.058600
     20 C5           3.7930    -0.9760     1.6750 cd         1 2B3       0.403700
     21 C4           4.9500    -0.0510     2.0340 c3         1 2B3       0.187500
     22 N1           6.1660    -0.1540     1.1680 n7         1 2B3      -0.911300
     23 S1           6.0790     0.2230    -0.4540 s6         1 2B3       1.201100
     24 O1           7.4600     0.1650    -0.9360 o          1 2B3      -0.523000
     25 O2           5.0610    -0.6500    -1.0400 o          1 2B3      -0.523000
     26 C3           5.5150     1.9340    -0.4470 c3         1 2B3      -0.341400
     27 C2           5.4430     2.5520    -1.8630 c3         1 2B3      -0.043400
     28 C1           4.9470     4.0100    -1.8410 c3         1 2B3      -0.084100
     29 H1          -5.6990     0.4800    -2.3260 hc         1 2B3       0.085700
     30 H2          -5.3690     2.1120    -1.7530 hc         1 2B3       0.085700
     31 H3          -6.1930     1.4820     0.5400 h1         1 2B3       0.069700
     32 H4          -6.5150    -0.1670    -0.0320 h1         1 2B3       0.069700
     33 H5          -3.9190     1.0040     0.6400 hn         1 2B3       0.319500
     34 H6          -2.2570    -2.9530    -0.8300 ha         1 2B3       0.123000
     35 H7           0.0980    -3.2880    -0.2580 ha         1 2B3       0.127000
     36 H8          -2.1670     0.9240     1.1180 ha         1 2B3       0.123000
     37 H9           0.1760     0.5740     1.6960 ha         1 2B3       0.127000
     38 H10          1.8140    -3.7900     1.0830 h4         1 2B3       0.164000
     39 H11          4.5670     0.9780     2.0470 h1         1 2B3       0.074200
     40 H12          5.2230    -0.2820     3.0730 h1         1 2B3       0.074200
     41 H13          6.8590     0.5260     1.4820 hn         1 2B3       0.497000
     42 H14          4.5210     1.9340     0.0130 h1         1 2B3       0.089700
     43 H15          6.2140     2.4960     0.1810 h1         1 2B3       0.089700
     44 H16          6.4340     2.5210    -2.3340 hc         1 2B3       0.058700
     45 H17          4.7690     1.9580    -2.4940 hc         1 2B3       0.058700
     46 H18          4.9070     4.4170    -2.8580 hc         1 2B3       0.037033
     47 H19          3.9410     4.0700    -1.4070 hc         1 2B3       0.037033
     48 H20          5.6190     4.6390    -1.2450 hc         1 2B3       0.037033
@<TRIPOS>BOND
     1     1     2 1   
     2     2     3 1   
     3     2     4 1   
     4     2     5 1   
     5     5     6 1   
     6     5    29 1   
     7     5    30 1   
     8     6     7 1   
     9     6    31 1   
    10     6    32 1   
    11     7     8 1   
    12     7    33 1   
    13     8     9 2   
    14     8    10 1   
    15    10    11 ar  
    16    10    13 ar  
    17    11    12 ar  
    18    11    34 1   
    19    12    15 ar  
    20    12    35 1   
    21    13    14 ar  
    22    13    36 1   
    23    14    15 ar  
    24    14    37 1   
    25    15    16 1   
    26    16    17 1   
    27    16    18 2   
    28    17    20 2   
    29    18    19 1   
    30    18    38 1   
    31    19    20 1   
    32    20    21 1   
    33    21    22 1   
    34    21    39 1   
    35    21    40 1   
    36    22    23 1   
    37    22    41 1   
    38    23    24 2   
    39    23    25 2   
    40    23    26 1   
    41    26    27 1   
    42    26    42 1   
    43    26    43 1   
    44    27    28 1   
    45    27    44 1   
    46    27    45 1   
    47    28    46 1   
    48    28    47 1   
    49    28    48 1   
@<TRIPOS>SUBSTRUCTURE
     1 2B3         1 TEMP              0 ****  ****    0 ROOT
