@<TRIPOS>MOLECULE
2B4
   20    20     1     0     0
SMALL
bcc


@<TRIPOS>ATOM
      1 C1          -0.0540     0.5210     0.4920 ca         1 2B4      -0.215000
      2 C5          -0.4590    -1.4990    -0.7470 ca         1 2B4      -0.215000
      3 C2          -1.4200     0.7720     0.5100 ca         1 2B4      -0.076500
      4 C4          -1.8180    -1.2490    -0.7310 ca         1 2B4      -0.076500
      5 C6           0.4450    -0.6220    -0.1380 ca         1 2B4       0.239100
      6 C3          -2.2970    -0.1100    -0.0980 ca         1 2B4      -0.112900
      7 C9           4.0660    -0.8350     0.3680 c          1 2B4       0.942600
      8 C12          2.8320     1.2090    -0.4320 c          1 2B4       0.942600
      9 C8           2.7020    -0.1080     0.3750 c3         1 2B4      -0.158900
     10 O10          4.1880    -1.8210    -0.3750 o          1 2B4      -0.842550
     11 O13          2.4730     1.1680    -1.6210 o          1 2B4      -0.842550
     12 O11          4.9290    -0.3320     1.1110 o          1 2B4      -0.842550
     13 O14          3.3110     2.1760     0.1870 o          1 2B4      -0.842550
     14 O7           1.7310    -0.9780    -0.1800 os         1 2B4      -0.231900
     15 BR1         -4.1570     0.2370    -0.0670 br         1 2B4      -0.210100
     16 H1           0.5990     1.2330     0.9770 ha         1 2B4       0.151500
     17 H2          -1.7810     1.6640     1.0040 ha         1 2B4       0.109500
     18 H5          -0.0850    -2.3900    -1.2360 ha         1 2B4       0.151500
     19 H4          -2.4910    -1.9480    -1.2110 ha         1 2B4       0.109500
     20 H8           2.4420     0.1240     1.4150 h1         1 2B4       0.020700
@<TRIPOS>BOND
     1     1     3 ar  
     2     1     5 ar  
     3     1    16 1   
     4     2     4 ar  
     5     2     5 ar  
     6     2    18 1   
     7     3     6 ar  
     8     3    17 1   
     9     4     6 ar  
    10     4    19 1   
    11     5    14 1   
    12     6    15 1   
    13     7     9 1   
    14     7    10 1   
    15     7    12 1   
    16     8     9 1   
    17     8    11 1   
    18     8    13 1   
    19     9    14 1   
    20     9    20 1   
@<TRIPOS>SUBSTRUCTURE
     1 2B4         1 TEMP              0 ****  ****    0 ROOT
