@<TRIPOS>MOLECULE
2B4
   20    20     1     0     0
SMALL
No Charge or Current Charge


@<TRIPOS>ATOM
      1 C1          -0.1060     0.4960     0.5380 ca         1 2B4      -0.197000
      2 C5          -0.5120    -1.5200    -0.7640 ca         1 2B4      -0.197000
      3 C2          -1.4860     0.7670     0.5450 ca         1 2B4      -0.058500
      4 C4          -1.8920    -1.2510    -0.7580 ca         1 2B4      -0.058500
      5 C6           0.3880    -0.6510    -0.1230 ca         1 2B4       0.239100
      6 C3          -2.3750    -0.1060    -0.1040 ca         1 2B4      -0.112900
      7 C9           4.1510    -0.7810     0.3620 c          1 2B4       0.732000
      8 C12          2.9500     1.1770    -0.4680 c          1 2B4       0.732000
      9 C8           2.7750    -0.1000     0.3700 c3         1 2B4      -0.135700
     10 O10          4.3090    -1.8030    -0.2960 o          1 2B4      -0.737250
     11 O13          2.6330     1.1630    -1.6500 o          1 2B4      -0.737250
     12 O11          5.0160    -0.3410     1.1060 o          1 2B4      -0.737250
     13 O14          3.2930     2.2000     0.1090 o          1 2B4      -0.737250
     14 O7           1.7310    -0.9760    -0.1570 os         1 2B4      -0.255100
     15 Br1         -4.2490     0.2630    -0.0920 br         1 2B4      -0.210100
     16 H1           0.5610     1.1810     1.0510 ha         1 2B4       0.133500
     17 H2          -1.8640     1.6510     1.0540 ha         1 2B4       0.091500
     18 H5          -0.1350    -2.4050    -1.2690 ha         1 2B4       0.133500
     19 H4          -2.5810    -1.9270    -1.2590 ha         1 2B4       0.091500
     20 H8           2.5500     0.1780     1.4080 h1         1 2B4       0.020700
@<TRIPOS>BOND
     1     1     3 ar  
     2     1     5 ar  
     3     1    16 1   
     4     2     4 ar  
     5     2     5 ar  
     6     2    18 1   
     7     3     6 ar  
     8     3    17 1   
     9     4     6 ar  
    10     4    19 1   
    11     5    14 1   
    12     6    15 1   
    13     7     9 1   
    14     7    10 1   
    15     7    12 1   
    16     8     9 1   
    17     8    11 1   
    18     8    13 1   
    19     9    14 1   
    20     9    20 1   
@<TRIPOS>SUBSTRUCTURE
     1 2B4         1 TEMP              0 ****  ****    0 ROOT
