@<TRIPOS>MOLECULE
2B5
   45    48     1     0     0
SMALL
No Charge or Current Charge


@<TRIPOS>ATOM
      1 C           -0.5230     0.0660    -2.4270 c          1 2B5       0.713000
      2 N           -2.0080     1.1000    -0.7000 na         1 2B5      -0.025700
      3 O            0.5600     0.0460    -1.8590 o          1 2B5      -0.704000
      4 CA          -1.4910     1.2020    -2.0770 c3         1 2B5      -0.095400
      5 CAA         -7.2920    -2.3900     0.8050 c3         1 2B5       0.158900
      6 OAC          2.2020     2.6560     2.0860 o          1 2B5      -0.648100
      7 CAE          6.7170    -2.0210     0.1670 ca         1 2B5      -0.145000
      8 CAF          5.8180    -2.5090    -0.8150 ca         1 2B5      -0.107000
      9 CAG         -5.0870    -1.0440    -0.5340 ca         1 2B5      -0.190000
     10 CAH          6.3590    -0.9380     1.0010 ca         1 2B5      -0.067000
     11 CAI          4.5450    -1.9170    -0.9760 ca         1 2B5      -0.087000
     12 CAJ         -4.0040    -0.3770    -1.1480 ca         1 2B5      -0.066000
     13 CAK         -4.3830    -0.2110     1.6600 ca         1 2B5      -0.113000
     14 CAL         -2.2710     1.2460     1.5570 cc         1 2B5      -0.263200
     15 CAM          4.4370     0.7290     1.5020 cc         1 2B5      -0.199200
     16 NAP          0.9890     1.6690     0.4270 ns         1 2B5      -0.486900
     17 OAR          3.0700    -0.1240    -0.0980 os         1 2B5      -0.119200
     18 CAT          2.1120     1.8050     1.2080 c          1 2B5       0.630300
     19 CAU         -5.2800    -0.9620     0.8730 ca         1 2B5       0.087100
     20 CAV         -1.4680     1.6410     0.4940 cd         1 2B5      -0.055300
     21 CAW          3.1930     0.8300     0.8860 cd         1 2B5      -0.022100
     22 CAX          5.0910    -0.3710     0.8210 ca         1 2B5      -0.129800
     23 CAY         -3.3220     0.4380     1.0170 ca         1 2B5      -0.066800
     24 CAZ          4.2220    -0.8480    -0.1340 ca         1 2B5       0.076100
     25 CBA         -3.1320     0.3670    -0.3350 ca         1 2B5      -0.061200
     26 OXT         -0.8760    -0.7640    -3.2520 o          1 2B5      -0.704000
     27 HA          -0.9600     2.1530    -2.1970 h1         1 2B5       0.047200
     28 HAA         -2.3280     1.1940    -2.7860 h1         1 2B5       0.047200
     29 HAAA        -6.8080    -3.2280     0.2880 h1         1 2B5       0.027033
     30 HAAB        -8.0310    -2.8020     1.5040 h1         1 2B5       0.027033
     31 HAAC        -7.8270    -1.7800     0.0660 h1         1 2B5       0.027033
     32 HAE          7.6940    -2.4860     0.2800 ha         1 2B5       0.100000
     33 HAF          6.1090    -3.3430    -1.4500 ha         1 2B5       0.106000
     34 HAG         -5.7620    -1.6180    -1.1620 ha         1 2B5       0.101000
     35 HAH          7.0430    -0.5590     1.7570 ha         1 2B5       0.108000
     36 HAI          3.8400    -2.2760    -1.7230 ha         1 2B5       0.145000
     37 HAJ         -3.8550    -0.4430    -2.2230 ha         1 2B5       0.124000
     38 HAK         -4.5110    -0.1390     2.7360 ha         1 2B5       0.113000
     39 HAL         -2.1080     1.5010     2.6010 ha         1 2B5       0.192000
     40 HAM          4.8110     1.3490     2.3130 ha         1 2B5       0.218000
     41 HAN         -0.2060     3.0410     1.4900 h1         1 2B5       0.048200
     42 HANA        -0.2320     3.2170    -0.2740 h1         1 2B5       0.048200
     43 HNAP         1.0170     0.9510    -0.2980 hn         1 2B5       0.407500
     44 CAN         -0.2180     2.4850     0.5440 c3         1 2B5       0.163200
     45 OAQ         -6.3230    -1.5980     1.5150 os         1 2B5      -0.359100
@<TRIPOS>BOND
     1     1     3 1   
     2     1     4 1   
     3     1    26 1   
     4     2     4 1   
     5     2    20 1   
     6     2    25 1   
     7     4    27 1   
     8     4    28 1   
     9     5    29 1   
    10     5    30 1   
    11     5    31 1   
    12     5    45 1   
    13     6    18 2   
    14     7     8 ar  
    15     7    10 ar  
    16     7    32 1   
    17     8    11 ar  
    18     8    33 1   
    19     9    12 ar  
    20     9    19 ar  
    21     9    34 1   
    22    10    22 ar  
    23    10    35 1   
    24    11    24 ar  
    25    11    36 1   
    26    12    25 ar  
    27    12    37 1   
    28    13    19 ar  
    29    13    23 ar  
    30    13    38 1   
    31    14    20 2   
    32    14    23 1   
    33    14    39 1   
    34    15    21 2   
    35    15    22 1   
    36    15    40 1   
    37    16    18 1   
    38    16    43 1   
    39    16    44 1   
    40    17    21 1   
    41    17    24 1   
    42    18    21 1   
    43    19    45 1   
    44    20    44 1   
    45    22    24 ar  
    46    23    25 ar  
    47    41    44 1   
    48    42    44 1   
@<TRIPOS>SUBSTRUCTURE
     1 2B5         1 TEMP              0 ****  ****    0 ROOT
