@<TRIPOS>MOLECULE
2B5
   45    48     1     0     0
SMALL
abcg2


@<TRIPOS>ATOM
      1 C           -0.4410     0.0270    -2.1360 c          1 2B5       0.713000
      2 N           -1.9930     1.0940    -0.4870 na         1 2B5      -0.025700
      3 O            0.0980    -0.5740    -1.1810 o          1 2B5      -0.704000
      4 CA          -1.3630     1.2150    -1.7770 c3         1 2B5      -0.095400
      5 CAA         -7.3010    -2.2880     0.4390 c3         1 2B5       0.158900
      6 OAC          2.3790     2.9140     1.5210 o          1 2B5      -0.648100
      7 CAE          6.7240    -1.8810    -0.0700 ca         1 2B5      -0.145000
      8 CAF          5.6520    -2.6990    -0.4580 ca         1 2B5      -0.107000
      9 CAG         -5.0760    -0.9600    -0.6400 ca         1 2B5      -0.190000
     10 CAH          6.5160    -0.5970     0.3980 ca         1 2B5      -0.067000
     11 CAI          4.3420    -2.2560    -0.3920 ca         1 2B5      -0.087000
     12 CAJ         -3.9700    -0.2980    -1.1470 ca         1 2B5      -0.066000
     13 CAK         -4.5040    -0.3090     1.6270 ca         1 2B5      -0.113000
     14 CAL         -2.3230     1.0980     1.7310 cc         1 2B5      -0.263200
     15 CAM          4.5760     1.0910     0.8870 cc         1 2B5      -0.199200
     16 NAP          0.9170     1.4400     0.6150 ns         1 2B5      -0.486900
     17 OAR          2.9740    -0.3350     0.2240 os         1 2B5      -0.119200
     18 CAT          2.1380     1.8400     0.9800 c          1 2B5       0.630300
     19 CAU         -5.3460    -0.9640     0.7410 ca         1 2B5       0.087100
     20 CAV         -1.5000     1.5150     0.7200 cd         1 2B5      -0.055300
     21 CAW          3.2480     0.9040     0.7120 cd         1 2B5      -0.022100
     22 CAX          5.2020    -0.1290     0.4740 ca         1 2B5      -0.129800
     23 CAY         -3.3810     0.3560     1.1300 ca         1 2B5      -0.066800
     24 CAZ          4.1550    -0.9670     0.0770 ca         1 2B5       0.076100
     25 CBA         -3.1300     0.3610    -0.2590 ca         1 2B5      -0.061200
     26 OXT         -0.2900    -0.1940    -3.3460 o          1 2B5      -0.704000
     27 HA          -0.7710     2.1340    -1.7990 h1         1 2B5       0.047200
     28 HAA         -2.1350     1.3400    -2.5360 h1         1 2B5       0.047200
     29 HAAA        -6.8060    -3.1080    -0.0910 h1         1 2B5       0.027033
     30 HAAB        -8.0790    -2.7050     1.0740 h1         1 2B5       0.027033
     31 HAAC        -7.7690    -1.6310    -0.2990 h1         1 2B5       0.027033
     32 HAE          7.7320    -2.2680    -0.1400 ha         1 2B5       0.100000
     33 HAF          5.8550    -3.6990    -0.8170 ha         1 2B5       0.106000
     34 HAG         -5.7260    -1.4760    -1.3330 ha         1 2B5       0.101000
     35 HAH          7.3480     0.0280     0.6940 ha         1 2B5       0.108000
     36 HAI          3.5120    -2.8840    -0.6890 ha         1 2B5       0.145000
     37 HAJ         -3.7780    -0.3120    -2.2130 ha         1 2B5       0.124000
     38 HAK         -4.7200    -0.3220     2.6890 ha         1 2B5       0.113000
     39 HAL         -2.1790     1.3040     2.7800 ha         1 2B5       0.192000
     40 HAM          5.0520     1.9830     1.2590 ha         1 2B5       0.218000
     41 HAN         -0.1910     2.7150     1.8440 h1         1 2B5       0.048200
     42 HANA        -0.2330     3.1410     0.1460 h1         1 2B5       0.048200
     43 HNAP         0.7610     0.5950     0.0500 hn         1 2B5       0.407500
     44 CAN         -0.2360     2.2930     0.8400 c3         1 2B5       0.163200
     45 OAQ         -6.4170    -1.5930     1.2880 os         1 2B5      -0.359100
@<TRIPOS>BOND
     1     1     3 1   
     2     1     4 1   
     3     1    26 1   
     4     2     4 1   
     5     2    20 1   
     6     2    25 1   
     7     4    27 1   
     8     4    28 1   
     9     5    29 1   
    10     5    30 1   
    11     5    31 1   
    12     5    45 1   
    13     6    18 2   
    14     7     8 ar  
    15     7    10 ar  
    16     7    32 1   
    17     8    11 ar  
    18     8    33 1   
    19     9    12 ar  
    20     9    19 ar  
    21     9    34 1   
    22    10    22 ar  
    23    10    35 1   
    24    11    24 ar  
    25    11    36 1   
    26    12    25 ar  
    27    12    37 1   
    28    13    19 ar  
    29    13    23 ar  
    30    13    38 1   
    31    14    20 2   
    32    14    23 1   
    33    14    39 1   
    34    15    21 2   
    35    15    22 1   
    36    15    40 1   
    37    16    18 1   
    38    16    43 1   
    39    16    44 1   
    40    17    21 1   
    41    17    24 1   
    42    18    21 1   
    43    19    45 1   
    44    20    44 1   
    45    22    24 ar  
    46    23    25 ar  
    47    41    44 1   
    48    42    44 1   
@<TRIPOS>SUBSTRUCTURE
     1 2B5         1 TEMP              0 ****  ****    0 ROOT
