@<TRIPOS>MOLECULE
2B6
   41    43     1     0     0
SMALL
abcg2


@<TRIPOS>ATOM
      1 OAE         -2.1130    26.7480   -22.9770 o          1 2B6      -0.834000
      2 PBB         -3.5570    26.5430   -23.2850 p5         1 2B6       1.391800
      3 OAF         -4.6030    27.5240   -22.8570 o          1 2B6      -0.834000
      4 OAC         -3.9450    25.0670   -22.6990 oh         1 2B6      -0.777400
      5 OAR         -3.6240    26.3390   -24.9000 os         1 2B6      -0.605400
      6 CAM         -4.8690    26.3430   -25.6270 c3         1 2B6       0.262900
      7 CAW         -5.4680    24.9640   -25.7300 ca         1 2B6      -0.109300
      8 CAL         -4.9650    24.1080   -26.6970 ca         1 2B6       0.289900
      9 NAQ         -5.3680    22.8450   -26.8690 nb         1 2B6      -0.686000
     10 CAU         -6.3220    22.3600   -26.0730 ca         1 2B6       0.269300
     11 CAA         -6.7690    20.9420   -26.2640 c3         1 2B6      -0.114400
     12 CAV         -6.9110    23.1490   -25.0720 ca         1 2B6       0.127100
     13 OAD         -7.8760    22.5940   -24.3160 oh         1 2B6      -0.593100
     14 CAY         -6.4870    24.4850   -24.8800 ca         1 2B6      -0.152900
     15 CAG         -7.0920    25.3100   -23.8470 ce         1 2B6       0.342800
     16 NAN         -8.0210    24.8180   -23.0940 nf         1 2B6      -0.402700
     17 NAO         -8.5750    25.6280   -22.1610 nf         1 2B6      -0.316000
     18 CAT         -9.4800    24.9790   -21.4150 ce         1 2B6       0.461000
     19 OAB         -9.8210    23.7770   -21.4480 o          1 2B6      -0.749300
     20 CAX        -10.1720    25.8460   -20.4070 cc         1 2B6       0.445200
     21 NAP        -10.0180    27.1140   -20.1920 nd         1 2B6      -0.510100
     22 CAZ        -10.8560    27.5610   -19.1900 ca         1 2B6       0.106400
     23 CAJ        -10.9380    28.8790   -18.7270 ca         1 2B6      -0.061000
     24 CAH        -11.8350    29.1770   -17.7160 ca         1 2B6      -0.137000
     25 CAI        -12.6510    28.1800   -17.1570 ca         1 2B6      -0.138000
     26 CAK        -12.5840    26.8690   -17.6020 ca         1 2B6      -0.079000
     27 CBA        -11.6830    26.5640   -18.6210 ca         1 2B6      -0.214000
     28 SAS        -11.3680    25.0430   -19.3950 ss         1 2B6       0.013800
     29 H3          -4.6170    26.6950   -26.6270 h1         1 2B6       0.035200
     30 H4          -5.5500    27.0610   -25.1760 h1         1 2B6       0.035200
     31 H5          -4.1910    24.4620   -27.3700 h4         1 2B6       0.004100
     32 H6          -6.1970    20.4820   -27.0680 hc         1 2B6       0.031033
     33 H7          -6.6320    20.3610   -25.3490 hc         1 2B6       0.031033
     34 H8          -7.8330    20.8950   -26.5110 hc         1 2B6       0.031033
     35 H9          -8.1690    23.3090   -23.6570 ho         1 2B6       0.546000
     36 H10         -4.8920    24.9810   -22.5300 ho         1 2B6       0.437000
     37 H11         -6.7580    26.3340   -23.7020 h4         1 2B6       0.036800
     38 H12        -10.3070    29.6420   -19.1630 ha         1 2B6       0.129000
     39 H13        -11.9110    30.1920   -17.3490 ha         1 2B6       0.094000
     40 H14        -13.3440    28.4390   -16.3680 ha         1 2B6       0.088000
     41 H15        -13.2150    26.1040   -17.1700 ha         1 2B6       0.103000
@<TRIPOS>BOND
     1     1     2 1   
     2     2     3 1   
     3     2     4 1   
     4     2     5 1   
     5     4    36 1   
     6     5     6 1   
     7     6     7 1   
     8     6    29 1   
     9     6    30 1   
    10     7     8 ar  
    11     7    14 ar  
    12     8     9 ar  
    13     8    31 1   
    14     9    10 ar  
    15    10    11 1   
    16    10    12 ar  
    17    11    32 1   
    18    11    33 1   
    19    11    34 1   
    20    12    13 1   
    21    12    14 ar  
    22    13    35 1   
    23    14    15 1   
    24    15    16 2   
    25    15    37 1   
    26    16    17 1   
    27    17    18 2   
    28    18    19 1   
    29    18    20 1   
    30    20    21 2   
    31    20    28 1   
    32    21    22 1   
    33    22    23 ar  
    34    22    27 ar  
    35    23    24 ar  
    36    23    38 1   
    37    24    25 ar  
    38    24    39 1   
    39    25    26 ar  
    40    25    40 1   
    41    26    27 ar  
    42    26    41 1   
    43    27    28 1   
@<TRIPOS>SUBSTRUCTURE
     1 2B6         1 TEMP              0 ****  ****    0 ROOT
