@<TRIPOS>MOLECULE
2B6
   41    43     1     0     0
SMALL
No Charge or Current Charge


@<TRIPOS>ATOM
      1 OAE         -0.9500    26.8630   -24.7520 o          1 2B6      -0.834000
      2 PBB         -2.3810    27.0560   -24.3920 p5         1 2B6       1.391800
      3 OAF         -2.9530    28.3350   -24.8800 o          1 2B6      -0.834000
      4 OAC         -2.5630    26.9990   -22.8260 oh         1 2B6      -0.777400
      5 OAR         -3.2790    25.7870   -24.7960 os         1 2B6      -0.605400
      6 CAM         -4.6960    25.8300   -24.5980 c3         1 2B6       0.262900
      7 CAW         -5.3520    24.5410   -25.1100 ca         1 2B6      -0.109300
      8 CAL         -4.6840    23.7590   -26.0810 ca         1 2B6       0.289900
      9 NAQ         -5.1730    22.6050   -26.5840 nb         1 2B6      -0.686000
     10 CAU         -6.3720    22.1770   -26.1280 ca         1 2B6       0.269300
     11 CAA         -6.8700    20.8640   -26.7250 c3         1 2B6      -0.114400
     12 CAV         -7.1360    22.8910   -25.1640 ca         1 2B6       0.127100
     13 OAD         -8.3550    22.4040   -24.7560 oh         1 2B6      -0.593100
     14 CAY         -6.6310    24.1150   -24.6470 ca         1 2B6      -0.152900
     15 CAG         -7.3910    24.9360   -23.6370 ce         1 2B6       0.342800
     16 NAN         -8.4500    24.4810   -23.0070 nf         1 2B6      -0.402700
     17 NAO         -9.1410    25.3980   -22.2200 nf         1 2B6      -0.316000
     18 CAT        -10.2650    25.0260   -21.6200 ce         1 2B6       0.461000
     19 OAB        -10.8610    24.0290   -21.9850 o          1 2B6      -0.749300
     20 CAX        -10.8630    25.8310   -20.5100 cc         1 2B6       0.445200
     21 NAP        -10.3020    26.9690   -20.0380 nd         1 2B6      -0.510100
     22 CAZ        -11.1100    27.4530   -19.0170 ca         1 2B6       0.106400
     23 CAJ        -10.8340    28.6260   -18.2950 ca         1 2B6      -0.061000
     24 CAH        -11.7180    29.0350   -17.2750 ca         1 2B6      -0.137000
     25 CAI        -12.8670    28.2710   -16.9860 ca         1 2B6      -0.138000
     26 CAK        -13.1360    27.0980   -17.7150 ca         1 2B6      -0.079000
     27 CBA        -12.2380    26.7160   -18.7240 ca         1 2B6      -0.214000
     28 SAS        -12.3870    25.2960   -19.7430 ss         1 2B6       0.013800
     29 H3          -5.1370    26.6850   -25.1280 h1         1 2B6       0.035200
     30 H4          -4.9120    25.9450   -23.5280 h1         1 2B6       0.035200
     31 H5          -3.7180    24.0600   -26.4830 h4         1 2B6       0.004100
     32 H6          -6.1610    20.4390   -27.4450 hc         1 2B6       0.031033
     33 H7          -7.0310    20.1160   -25.9400 hc         1 2B6       0.031033
     34 H8          -7.8220    21.0120   -27.2480 hc         1 2B6       0.031033
     35 H9          -8.6910    23.0170   -24.0510 ho         1 2B6       0.546000
     36 H10         -3.0610    27.8360   -22.8180 ho         1 2B6       0.437000
     37 H11         -7.0680    25.9680   -23.4760 h4         1 2B6       0.036800
     38 H12         -9.9470    29.2120   -18.5210 ha         1 2B6       0.129000
     39 H13        -11.5120    29.9420   -16.7110 ha         1 2B6       0.094000
     40 H14        -13.5480    28.5890   -16.1990 ha         1 2B6       0.088000
     41 H15        -14.0200    26.5010   -17.5000 ha         1 2B6       0.103000
@<TRIPOS>BOND
     1     1     2 1   
     2     2     3 1   
     3     2     4 1   
     4     2     5 1   
     5     4    36 1   
     6     5     6 1   
     7     6     7 1   
     8     6    29 1   
     9     6    30 1   
    10     7     8 ar  
    11     7    14 ar  
    12     8     9 ar  
    13     8    31 1   
    14     9    10 ar  
    15    10    11 1   
    16    10    12 ar  
    17    11    32 1   
    18    11    33 1   
    19    11    34 1   
    20    12    13 1   
    21    12    14 ar  
    22    13    35 1   
    23    14    15 1   
    24    15    16 2   
    25    15    37 1   
    26    16    17 1   
    27    17    18 2   
    28    18    19 1   
    29    18    20 1   
    30    20    21 2   
    31    20    28 1   
    32    21    22 1   
    33    22    23 ar  
    34    22    27 ar  
    35    23    24 ar  
    36    23    38 1   
    37    24    25 ar  
    38    24    39 1   
    39    25    26 ar  
    40    25    40 1   
    41    26    27 ar  
    42    26    41 1   
    43    27    28 1   
@<TRIPOS>SUBSTRUCTURE
     1 2B6         1 TEMP              0 ****  ****    0 ROOT
