@<TRIPOS>MOLECULE
2B7
   51    53     1     0     0
SMALL
bcc


@<TRIPOS>ATOM
      1 C1           3.8000    -4.6080    -0.6340 c3         1 2B7      -0.089600
      2 C2           2.6310    -4.4130     0.3280 c3         1 2B7      -0.055700
      3 C3           2.9030    -5.1210     1.6510 c3         1 2B7      -0.089600
      4 N6           1.5520    -0.7940    -0.3740 n          1 2B7      -0.304000
      5 C7           2.5480     0.1810    -0.3960 c          1 2B7       0.706700
      6 C9           2.1270     1.5360    -0.0650 cc         1 2B7      -0.153400
      7 C10          0.8400     1.8120     0.2870 cd         1 2B7      -0.095800
      8 C11         -0.1190     0.7810     0.3230 cd         1 2B7       0.312100
      9 C12          0.2850    -0.4890    -0.0160 cc         1 2B7       0.045200
     10 C14         -2.0400    -0.2200     0.6150 cc         1 2B7       0.603300
     11 C20         -6.8110     0.7370     0.7060 c3         1 2B7       0.144200
     12 C21         -7.4040     0.3190    -0.6060 c2         1 2B7      -0.203200
     13 C22         -8.6290    -0.1720    -0.7430 c2         1 2B7      -0.203000
     14 C24          3.2570     3.4910     0.9910 ca         1 2B7      -0.084000
     15 C4           2.3310    -2.9360     0.5840 c3         1 2B7      -0.095400
     16 C5           1.9170    -2.1800    -0.6710 c3         1 2B7       0.087000
     17 O8           3.6980    -0.1310    -0.6740 o          1 2B7      -0.614500
     18 S13         -1.0440    -1.5820     0.0880 ss         1 2B7      -0.269300
     19 N15         -1.4360     0.9060     0.6840 nd         1 2B7      -0.595000
     20 N16         -3.3610    -0.4590     0.8870 ns         1 2B7      -0.574400
     21 C17         -4.3840     0.4410     0.5980 c          1 2B7       0.796100
     22 O18         -4.1850     1.4960     0.0290 o          1 2B7      -0.576100
     23 N19         -5.5920     0.0210     1.0220 ns         1 2B7      -0.583900
     24 C23          3.1470     2.5990    -0.0720 ca         1 2B7      -0.152100
     25 C25          4.2010     4.5030     0.9360 ca         1 2B7      -0.251300
     26 C26          5.0120     4.5900    -0.1830 ca         1 2B7       0.405200
     27 N27          4.9200     3.7500    -1.2090 nb         1 2B7      -0.669000
     28 C28          4.0150     2.7850    -1.1510 ca         1 2B7       0.437200
     29 H1           4.0220    -5.6680    -0.7630 hc         1 2B7       0.036033
     30 H2           3.6000    -4.1990    -1.6250 hc         1 2B7       0.036033
     31 H3           4.7040    -4.1260    -0.2520 hc         1 2B7       0.036033
     32 H4           1.7390    -4.8660    -0.1210 hc         1 2B7       0.040700
     33 H5           2.0600    -5.0210     2.3360 hc         1 2B7       0.036033
     34 H6           3.0860    -6.1860     1.5000 hc         1 2B7       0.036033
     35 H7           3.7840    -4.7000     2.1430 hc         1 2B7       0.036033
     36 H8           0.5380     2.8220     0.5350 ha         1 2B7       0.162000
     37 H9          -6.5910     1.8050     0.6950 h1         1 2B7       0.066700
     38 H10         -7.5210     0.5660     1.5150 h1         1 2B7       0.066700
     39 H11         -6.7700     0.4440    -1.4790 ha         1 2B7       0.135000
     40 H12         -9.0260    -0.4480    -1.7110 ha         1 2B7       0.114000
     41 H13         -9.2850    -0.3110     0.1090 ha         1 2B7       0.114000
     42 H14          2.6190     3.3870     1.8600 ha         1 2B7       0.136000
     43 H15          1.5300    -2.8600     1.3270 hc         1 2B7       0.054700
     44 H16          3.2110    -2.4540     1.0210 hc         1 2B7       0.054700
     45 H17          1.0600    -2.6580    -1.1520 h1         1 2B7       0.070700
     46 H18          2.7150    -2.1570    -1.4090 h1         1 2B7       0.070700
     47 H19         -3.6050    -1.3770     1.2290 hn         1 2B7       0.327500
     48 H20         -5.6950    -0.9050     1.4050 hn         1 2B7       0.308500
     49 H21          4.3120     5.2070     1.7500 ha         1 2B7       0.141000
     50 H22          5.7650     5.3660    -0.2560 h4         1 2B7       0.018100
     51 H23          3.9590     2.1310    -2.0120 h4         1 2B7       0.029100
@<TRIPOS>BOND
     1     1     2 1   
     2     1    29 1   
     3     1    30 1   
     4     1    31 1   
     5     2     3 1   
     6     2    15 1   
     7     2    32 1   
     8     3    33 1   
     9     3    34 1   
    10     3    35 1   
    11     4     5 1   
    12     4     9 1   
    13     4    16 1   
    14     5     6 1   
    15     5    17 2   
    16     6     7 2   
    17     6    24 1   
    18     7     8 1   
    19     7    36 1   
    20     8     9 2   
    21     8    19 1   
    22     9    18 1   
    23    10    18 1   
    24    10    19 2   
    25    10    20 1   
    26    11    12 1   
    27    11    23 1   
    28    11    37 1   
    29    11    38 1   
    30    12    13 2   
    31    12    39 1   
    32    13    40 1   
    33    13    41 1   
    34    14    24 ar  
    35    14    25 ar  
    36    14    42 1   
    37    15    16 1   
    38    15    43 1   
    39    15    44 1   
    40    16    45 1   
    41    16    46 1   
    42    20    21 1   
    43    20    47 1   
    44    21    22 2   
    45    21    23 1   
    46    23    48 1   
    47    24    28 ar  
    48    25    26 ar  
    49    25    49 1   
    50    26    27 ar  
    51    26    50 1   
    52    27    28 ar  
    53    28    51 1   
@<TRIPOS>SUBSTRUCTURE
     1 2B7         1 TEMP              0 ****  ****    0 ROOT
