@<TRIPOS>MOLECULE
2B7
   51    53     1     0     0
SMALL
No Charge or Current Charge


@<TRIPOS>ATOM
      1 C1           3.7750    -4.8480    -0.3130 c3         1 2B7      -0.089600
      2 C2           2.4210    -4.5470     0.3730 c3         1 2B7      -0.055700
      3 C3           2.2960    -5.3230     1.7030 c3         1 2B7      -0.089600
      4 N6           1.7640    -0.7760    -0.4630 n          1 2B7      -0.237000
      5 C7           2.7990     0.1880    -0.3580 c          1 2B7       0.564200
      6 C9           2.3370     1.5900    -0.1180 cc         1 2B7      -0.153400
      7 C10          0.9960     1.9370    -0.0090 cd         1 2B7      -0.145800
      8 C11          0.0160     0.9020    -0.1250 cd         1 2B7       0.246800
      9 C12          0.4270    -0.3880    -0.3430 cc         1 2B7      -0.034400
     10 C14         -1.9670    -0.0560    -0.1890 cc         1 2B7       0.603300
     11 C20         -6.7700     1.0100     0.1890 c3         1 2B7       0.144200
     12 C21         -7.9670     0.0950     0.0810 c2         1 2B7      -0.253200
     13 C22         -8.2910    -0.8700     0.9590 c2         1 2B7      -0.303000
     14 C24          3.2030     3.6060     1.0910 ca         1 2B7      -0.066000
     15 C4           2.1820    -3.0290     0.5920 c3         1 2B7      -0.095400
     16 C5           2.1280    -2.1940    -0.7080 c3         1 2B7       0.087000
     17 O8           3.9850    -0.1090    -0.4470 o          1 2B7      -0.539000
     18 S13         -0.9430    -1.4530    -0.4490 ss         1 2B7      -0.124400
     19 N15         -1.3460     1.1040    -0.0370 nd         1 2B7      -0.595000
     20 N16         -3.3330    -0.1940    -0.1520 ns         1 2B7      -0.507400
     21 C17         -4.2910     0.7600     0.0380 c          1 2B7       0.662100
     22 O18         -4.0830     1.9480     0.2130 o          1 2B7      -0.576100
     23 N19         -5.5520     0.2300     0.0100 ns         1 2B7      -0.516900
     24 C23          3.2800     2.7090     0.0080 ca         1 2B7      -0.086800
     25 C25          4.1350     4.6540     1.1610 ca         1 2B7      -0.168000
     26 C26          5.1100     4.7760     0.1580 ca         1 2B7       0.339900
     27 N27          5.2000     3.9220    -0.8860 nb         1 2B7      -0.669000
     28 C28          4.3010     2.9090    -0.9500 ca         1 2B7       0.371900
     29 H1           3.9240    -5.9290    -0.4160 hc         1 2B7       0.036033
     30 H2           3.8170    -4.4140    -1.3180 hc         1 2B7       0.036033
     31 H3           4.6090    -4.4430     0.2740 hc         1 2B7       0.036033
     32 H4           1.6270    -4.9160    -0.2900 hc         1 2B7       0.040700
     33 H5           1.3130    -5.1570     2.1600 hc         1 2B7       0.036033
     34 H6           2.4100    -6.4010     1.5370 hc         1 2B7       0.036033
     35 H7           3.0650    -5.0030     2.4170 hc         1 2B7       0.036033
     36 H8           0.6750     2.9620     0.1530 ha         1 2B7       0.212000
     37 H9          -6.8150     1.7930    -0.5810 h1         1 2B7       0.066700
     38 H10         -6.7480     1.4950     1.1750 h1         1 2B7       0.066700
     39 H11         -8.5870     0.2750    -0.8010 ha         1 2B7       0.185000
     40 H12         -9.1740    -1.4970     0.8200 ha         1 2B7       0.164000
     41 H13         -7.6880    -1.0650     1.8470 ha         1 2B7       0.164000
     42 H14          2.4460     3.4900     1.8650 ha         1 2B7       0.118000
     43 H15          1.2350    -2.8970     1.1300 hc         1 2B7       0.054700
     44 H16          2.9680    -2.6250     1.2420 hc         1 2B7       0.054700
     45 H17          1.3910    -2.6360    -1.3900 h1         1 2B7       0.070700
     46 H18          3.0950    -2.2450    -1.2210 h1         1 2B7       0.070700
     47 H19         -3.6840    -1.1290    -0.2820 hn         1 2B7       0.327500
     48 H20         -5.6480    -0.7650    -0.1370 hn         1 2B7       0.308500
     49 H21          4.1090     5.3660     1.9820 ha         1 2B7       0.123000
     50 H22          5.8430     5.5820     0.1910 h4         1 2B7       0.018100
     51 H23          4.3950     2.2420    -1.8070 h4         1 2B7       0.029100
@<TRIPOS>BOND
     1     1     2 1   
     2     1    29 1   
     3     1    30 1   
     4     1    31 1   
     5     2     3 1   
     6     2    15 1   
     7     2    32 1   
     8     3    33 1   
     9     3    34 1   
    10     3    35 1   
    11     4     5 1   
    12     4     9 1   
    13     4    16 1   
    14     5     6 1   
    15     5    17 2   
    16     6     7 2   
    17     6    24 1   
    18     7     8 1   
    19     7    36 1   
    20     8     9 2   
    21     8    19 1   
    22     9    18 1   
    23    10    18 1   
    24    10    19 2   
    25    10    20 1   
    26    11    12 1   
    27    11    23 1   
    28    11    37 1   
    29    11    38 1   
    30    12    13 2   
    31    12    39 1   
    32    13    40 1   
    33    13    41 1   
    34    14    24 ar  
    35    14    25 ar  
    36    14    42 1   
    37    15    16 1   
    38    15    43 1   
    39    15    44 1   
    40    16    45 1   
    41    16    46 1   
    42    20    21 1   
    43    20    47 1   
    44    21    22 2   
    45    21    23 1   
    46    23    48 1   
    47    24    28 ar  
    48    25    26 ar  
    49    25    49 1   
    50    26    27 ar  
    51    26    50 1   
    52    27    28 ar  
    53    28    51 1   
@<TRIPOS>SUBSTRUCTURE
     1 2B7         1 TEMP              0 ****  ****    0 ROOT
