@<TRIPOS>MOLECULE
2B8
   41    42     1     0     0
SMALL
No Charge or Current Charge


@<TRIPOS>ATOM
      1 C1           5.4150     1.0470    -1.6660 c3         1 2B8      -0.088100
      2 C2           4.1130     0.9770    -0.8470 c3         1 2B8      -0.100400
      3 C3           3.9630    -0.3450    -0.0660 c3         1 2B8       0.081600
      4 N6           1.3030    -0.2320     2.4360 nc         1 2B8      -0.678000
      5 C7           0.6400    -0.6560     1.3220 cc         1 2B8       0.266300
      6 C8          -0.8350    -0.9680     1.2760 c6         1 2B8      -0.079700
      7 C9          -1.4110    -0.8870    -0.1920 c6         1 2B8      -0.172000
      8 C10         -1.4850     0.6020    -0.7140 c3         1 2B8      -0.040400
      9 C11         -2.4740     1.5520     0.0100 c3         1 2B8      -0.075400
     10 C12         -2.4750     2.9730    -0.5890 c3         1 2B8       0.144800
     11 C14         -0.4390    -1.7310    -1.1020 c6         1 2B8      -0.052400
     12 C15          1.0280    -1.2110    -1.1310 c6         1 2B8       0.000900
     13 C16          1.4700    -0.7870     0.2490 cd         1 2B8      -0.207300
     14 N4           2.7160    -0.4080     0.7100 na         1 2B8      -0.175500
     15 C5           2.5680    -0.0810     2.0540 cd         1 2B8       0.361400
     16 N13         -3.4180     3.8620     0.1100 n8         1 2B8      -0.991200
     17 H1           6.2910     0.9620    -1.0110 hc         1 2B8       0.029367
     18 H2           5.4540     0.2350    -2.4030 hc         1 2B8       0.029367
     19 H3           5.4790     2.0010    -2.2030 hc         1 2B8       0.029367
     20 H4           4.0850     1.8180    -0.1430 hc         1 2B8       0.056200
     21 H5           3.2570     1.0980    -1.5230 hc         1 2B8       0.056200
     22 H6           3.9830    -1.1880    -0.7680 h1         1 2B8       0.047700
     23 H7           4.8110    -0.4600     0.6210 h1         1 2B8       0.047700
     24 H8          -0.9840    -1.9840     1.6670 hc         1 2B8       0.063700
     25 H9          -1.3910    -0.3100     1.9550 hc         1 2B8       0.063700
     26 H10         -0.4930     1.0670    -0.6570 hc         1 2B8       0.017700
     27 H11         -1.7420     0.5990    -1.7800 hc         1 2B8       0.017700
     28 H12         -3.4890     1.1420    -0.0500 hc         1 2B8       0.061200
     29 H13         -2.2130     1.6170     1.0720 hc         1 2B8       0.061200
     30 H14         -1.4680     3.4080    -0.5170 h1         1 2B8       0.013200
     31 H15         -2.7600     2.9290    -1.6490 h1         1 2B8       0.013200
     32 H16         -0.4360    -2.7710    -0.7480 hc         1 2B8       0.049200
     33 H17         -0.8170    -1.7720    -2.1330 hc         1 2B8       0.049200
     34 H18          1.6890    -1.9920    -1.5300 hc         1 2B8       0.026700
     35 H19          1.1050    -0.3620    -1.8240 hc         1 2B8       0.026700
     36 H20          3.3990     0.2500     2.6660 h5         1 2B8       0.032100
     37 H21         -3.1070     3.9800     1.0810 hn         1 2B8       0.376500
     38 H22         -3.3420     4.8070    -0.2860 hn         1 2B8       0.376500
     39 C17         -2.8390    -1.5370    -0.2760 c          1 2B8       0.721000
     40 O18         -3.3790    -1.5580    -1.3730 o          1 2B8      -0.730000
     41 O19         -3.5000    -1.5970     0.7520 o          1 2B8      -0.730000
@<TRIPOS>BOND
     1     1     2 1   
     2     1    17 1   
     3     1    18 1   
     4     1    19 1   
     5     2     3 1   
     6     2    20 1   
     7     2    21 1   
     8     3    14 1   
     9     3    22 1   
    10     3    23 1   
    11     4     5 1   
    12     4    15 2   
    13     5     6 1   
    14     5    13 2   
    15     6     7 1   
    16     6    24 1   
    17     6    25 1   
    18     7     8 1   
    19     7    11 1   
    20     7    39 1   
    21     8     9 1   
    22     8    26 1   
    23     8    27 1   
    24     9    10 1   
    25     9    28 1   
    26     9    29 1   
    27    10    16 1   
    28    10    30 1   
    29    10    31 1   
    30    11    12 1   
    31    11    32 1   
    32    11    33 1   
    33    12    13 1   
    34    12    34 1   
    35    12    35 1   
    36    13    14 1   
    37    14    15 1   
    38    15    36 1   
    39    16    37 1   
    40    16    38 1   
    41    39    40 1   
    42    39    41 1   
@<TRIPOS>SUBSTRUCTURE
     1 2B8         1 TEMP              0 ****  ****    0 ROOT
