@<TRIPOS>MOLECULE
2B8
   41    42     1     0     0
SMALL
bcc


@<TRIPOS>ATOM
      1 C1           5.2690     1.0030    -1.7110 c3         1 2B8      -0.088100
      2 C2           3.9890     0.9410    -0.8910 c3         1 2B8      -0.100400
      3 C3           3.9130    -0.3370    -0.0660 c3         1 2B8       0.052300
      4 N6           1.3340    -0.2520     2.4480 nc         1 2B8      -0.678000
      5 C7           0.6190    -0.6250     1.3430 cc         1 2B8       0.331600
      6 C8          -0.8490    -0.8880     1.2900 c6         1 2B8      -0.079700
      7 C9          -1.3550    -0.8380    -0.1630 c6         1 2B8      -0.172000
      8 C10         -1.3930     0.6150    -0.6770 c3         1 2B8      -0.040400
      9 C11         -2.4760     1.5040    -0.0760 c3         1 2B8      -0.075400
     10 C12         -2.3330     2.9530    -0.5160 c3         1 2B8       0.144800
     11 C14         -0.3980    -1.6620    -1.0490 c6         1 2B8      -0.052400
     12 C15          1.0280    -1.1040    -1.1130 c6         1 2B8       0.000900
     13 C16          1.4460    -0.7380     0.2630 cd         1 2B8      -0.221900
     14 N4           2.7000    -0.4260     0.7190 na         1 2B8      -0.196900
     15 C5           2.5720    -0.1410     2.0350 cd         1 2B8       0.361400
     16 N13         -3.3960     3.7780     0.0430 n8         1 2B8      -0.880800
     17 H1           6.1540     0.9750    -1.0730 hc         1 2B8       0.029367
     18 H2           5.3360     0.1650    -2.4070 hc         1 2B8       0.029367
     19 H3           5.3130     1.9210    -2.2960 hc         1 2B8       0.029367
     20 H4           3.9290     1.8030    -0.2210 hc         1 2B8       0.056200
     21 H5           3.1230     1.0000    -1.5550 hc         1 2B8       0.056200
     22 H6           3.9730    -1.2130    -0.7150 h1         1 2B8       0.047700
     23 H7           4.7580    -0.3930     0.6220 h1         1 2B8       0.047700
     24 H8          -1.0710    -1.8720     1.7140 hc         1 2B8       0.063700
     25 H9          -1.3840    -0.1720     1.9200 hc         1 2B8       0.063700
     26 H10         -0.4190     1.0780    -0.4910 hc         1 2B8       0.017700
     27 H11         -1.5180     0.5990    -1.7640 hc         1 2B8       0.017700
     28 H12         -3.4660     1.1460    -0.3700 hc         1 2B8       0.061200
     29 H13         -2.4410     1.4600     1.0170 hc         1 2B8       0.061200
     30 H14         -1.3240     3.3070    -0.2550 h1         1 2B8       0.013200
     31 H15         -2.4000     3.0050    -1.6070 h1         1 2B8       0.013200
     32 H16         -0.3520    -2.6860    -0.6620 hc         1 2B8       0.049200
     33 H17         -0.8060    -1.7270    -2.0570 hc         1 2B8       0.049200
     34 H18          1.6960    -1.8500    -1.5550 hc         1 2B8       0.026700
     35 H19          1.0670    -0.2330    -1.7770 hc         1 2B8       0.026700
     36 H20          3.4230     0.1360     2.6410 h5         1 2B8       0.032100
     37 H21         -3.2960     3.8050     1.0500 hn         1 2B8       0.321300
     38 H22         -3.2770     4.7340    -0.2650 hn         1 2B8       0.321300
     39 C17         -2.7850    -1.4260    -0.2870 c          1 2B8       0.931600
     40 O18         -3.2210    -1.5790    -1.4480 o          1 2B8      -0.835300
     41 O19         -3.4090    -1.6790     0.7630 o          1 2B8      -0.835300
@<TRIPOS>BOND
     1     1     2 1   
     2     1    17 1   
     3     1    18 1   
     4     1    19 1   
     5     2     3 1   
     6     2    20 1   
     7     2    21 1   
     8     3    14 1   
     9     3    22 1   
    10     3    23 1   
    11     4     5 1   
    12     4    15 2   
    13     5     6 1   
    14     5    13 2   
    15     6     7 1   
    16     6    24 1   
    17     6    25 1   
    18     7     8 1   
    19     7    11 1   
    20     7    39 1   
    21     8     9 1   
    22     8    26 1   
    23     8    27 1   
    24     9    10 1   
    25     9    28 1   
    26     9    29 1   
    27    10    16 1   
    28    10    30 1   
    29    10    31 1   
    30    11    12 1   
    31    11    32 1   
    32    11    33 1   
    33    12    13 1   
    34    12    34 1   
    35    12    35 1   
    36    13    14 1   
    37    14    15 1   
    38    15    36 1   
    39    16    37 1   
    40    16    38 1   
    41    39    40 1   
    42    39    41 1   
@<TRIPOS>SUBSTRUCTURE
     1 2B8         1 TEMP              0 ****  ****    0 ROOT
