@<TRIPOS>MOLECULE
2BA
   66    72     1     0     0
SMALL
No Charge or Current Charge


@<TRIPOS>ATOM
      1 P           67.4000    14.1150   -37.5350 p5         1 2BA       1.412300
      2 O1P         68.8650    14.2310   -37.2820 o          1 2BA      -0.820500
      3 O2P         66.7490    13.1720   -36.5830 o          1 2BA      -0.820500
      4 O5          66.6490    15.5370   -37.5530 os         1 2BA      -0.629400
      5 C5          65.2120    15.5230   -37.6110 c3         1 2BA       0.229600
      6 C4          64.6790    16.9000   -38.0890 c5         1 2BA       0.146300
      7 O4          64.9110    17.9340   -37.0940 os         1 2BA      -0.454000
      8 C3          65.2640    17.4580   -39.4240 c5         1 2BA       0.197300
      9 O3          64.5470    16.8710   -40.5490 os         1 2BA      -0.580400
     10 C2          64.8730    18.9630   -39.2880 c5         1 2BA       0.106800
     11 O2          63.4710    19.1740   -39.5700 oh         1 2BA      -0.719000
     12 C1          65.1990    19.1810   -37.7690 c5         1 2BA       0.295800
     13 N9          66.5540    19.6030   -37.4110 na         1 2BA      -0.300300
     14 C8          67.7080    18.8100   -37.4580 cc         1 2BA       0.460700
     15 N7          68.8070    19.5210   -37.1310 nd         1 2BA      -0.576100
     16 C7          68.3000    20.7990   -36.8820 ca         1 2BA      -0.072600
     17 C6          68.9800    21.9770   -36.5040 ca         1 2BA       0.415900
     18 N6          70.3260    22.0270   -36.3140 nv         1 2BA      -1.061900
     19 N1          68.3200    23.1310   -36.3210 nb         1 2BA      -0.331000
     20 C10         66.9780    23.0870   -36.5140 ca         1 2BA       0.148900
     21 N3          66.2460    22.0050   -36.8720 nb         1 2BA      -0.199500
     22 C9          66.9400    20.8630   -37.0490 ca         1 2BA       0.110500
     23 P1          65.0700    17.1460   -42.0570 p5         1 2BA       1.412300
     24 O1P1        65.4940    18.5600   -42.2500 o          1 2BA      -0.820500
     25 O2P1        64.0400    16.7450   -43.0580 o          1 2BA      -0.820500
     26 O5'1        66.3230    16.1410   -42.0870 os         1 2BA      -0.629400
     27 C5'1        66.1080    14.7300   -42.2510 c3         1 2BA       0.229600
     28 C4'1        67.1970    13.9120   -41.4910 c5         1 2BA       0.146300
     29 O4'1        68.3880    13.6940   -42.2930 os         1 2BA      -0.454000
     30 C3'1        67.6740    14.5230   -40.1370 c5         1 2BA       0.197300
     31 O3'1        67.1280    13.6980   -39.0650 os         1 2BA      -0.580400
     32 C2'1        69.2510    14.4890   -40.2110 c5         1 2BA       0.106800
     33 O2'1        69.8350    13.3430   -39.5570 oh         1 2BA      -0.719000
     34 C1'1        69.4730    14.4880   -41.7650 c5         1 2BA       0.295800
     35 N91         69.5440    15.7540   -42.5090 na         1 2BA      -0.300300
     36 C81         70.0170    15.8220   -43.8240 cc         1 2BA       0.460700
     37 N71         70.1050    17.0930   -44.2600 nd         1 2BA      -0.576100
     38 C51         69.6750    17.8370   -43.1590 ca         1 2BA      -0.072600
     39 C61         69.5590    19.2370   -43.0280 ca         1 2BA       0.415900
     40 N61         69.8760    20.1030   -44.0300 nv         1 2BA      -1.061900
     41 N11         69.1260    19.7950   -41.8890 nb         1 2BA      -0.331000
     42 C21         68.8170    18.9350   -40.8900 ca         1 2BA       0.148900
     43 N31         68.9040    17.5830   -40.9230 nb         1 2BA      -0.199500
     44 C41         69.3350    17.0470   -42.0850 ca         1 2BA       0.110500
     45 H5          64.8530    14.7580   -38.3130 h1         1 2BA       0.041950
     46 H5'A        64.7860    15.3010   -36.6240 h1         1 2BA       0.041950
     47 H4          63.5900    16.7960   -38.1910 h1         1 2BA       0.067200
     48 H3          66.3460    17.3160   -39.5220 h1         1 2BA       0.053200
     49 H2          65.5020    19.6100   -39.9160 h1         1 2BA       0.090700
     50 HO2         63.2240    18.4460   -40.1910 ho         1 2BA       0.529500
     51 H1          64.5440    19.9660   -37.3700 h2         1 2BA       0.087700
     52 H8          67.6880    17.7600   -37.7210 h5         1 2BA       0.122800
     53 HN6         70.8670    21.2330   -36.6500 hn         1 2BA       0.489250
     54 HN6A        70.7840    22.9340   -36.3260 hn         1 2BA       0.489250
     55 H6          66.4330    24.0170   -36.3670 h5         1 2BA       0.027600
     56 HC5         65.1290    14.4410   -41.8440 h1         1 2BA       0.041950
     57 HC5A        66.1210    14.4540   -43.3140 h1         1 2BA       0.041950
     58 HC4         66.7630    12.9190   -41.3140 h1         1 2BA       0.067200
     59 HC3         67.3280    15.5510   -40.0070 h1         1 2BA       0.053200
     60 HC2         69.6740    15.4010   -39.7710 h1         1 2BA       0.090700
     61 HO2A        69.6060    13.4980   -38.5910 ho         1 2BA       0.529500
     62 HC1         70.4260    13.9910   -41.9850 h2         1 2BA       0.087700
     63 HC8         70.2750    14.9330   -44.3890 h5         1 2BA       0.122800
     64 H1N6        69.9980    19.7030   -44.9570 hn         1 2BA       0.489250
     65 H1NA        69.5060    21.0480   -43.9830 hn         1 2BA       0.489250
     66 H7          68.4600    19.3810   -39.9650 h5         1 2BA       0.027600
@<TRIPOS>BOND
     1     1     2 1   
     2     1     3 1   
     3     1     4 1   
     4     1    31 1   
     5     4     5 1   
     6     5     6 1   
     7     5    45 1   
     8     5    46 1   
     9     6     7 1   
    10     6     8 1   
    11     6    47 1   
    12     7    12 1   
    13     8     9 1   
    14     8    10 1   
    15     8    48 1   
    16     9    23 1   
    17    10    11 1   
    18    10    12 1   
    19    10    49 1   
    20    11    50 1   
    21    12    13 1   
    22    12    51 1   
    23    13    14 1   
    24    13    22 1   
    25    14    15 2   
    26    14    52 1   
    27    15    16 1   
    28    16    17 ar  
    29    16    22 ar  
    30    17    18 1   
    31    17    19 ar  
    32    18    53 1   
    33    18    54 1   
    34    19    20 ar  
    35    20    21 ar  
    36    20    55 1   
    37    21    22 ar  
    38    23    24 1   
    39    23    25 1   
    40    23    26 1   
    41    26    27 1   
    42    27    28 1   
    43    27    56 1   
    44    27    57 1   
    45    28    29 1   
    46    28    30 1   
    47    28    58 1   
    48    29    34 1   
    49    30    31 1   
    50    30    32 1   
    51    30    59 1   
    52    32    33 1   
    53    32    34 1   
    54    32    60 1   
    55    33    61 1   
    56    34    35 1   
    57    34    62 1   
    58    35    36 1   
    59    35    44 1   
    60    36    37 2   
    61    36    63 1   
    62    37    38 1   
    63    38    39 ar  
    64    38    44 ar  
    65    39    40 1   
    66    39    41 ar  
    67    40    64 1   
    68    40    65 1   
    69    41    42 ar  
    70    42    43 ar  
    71    42    66 1   
    72    43    44 ar  
@<TRIPOS>SUBSTRUCTURE
     1 2BA         1 TEMP              0 ****  ****    0 ROOT
