@<TRIPOS>MOLECULE
2BA
   66    72     1     0     0
SMALL
abcg2


@<TRIPOS>ATOM
      1 P           67.1890    13.9510   -37.6070 p5         1 2BA       1.412300
      2 O1P         68.6120    14.2580   -37.2570 o          1 2BA      -0.820500
      3 O2P         66.4360    12.8790   -36.9020 o          1 2BA      -0.820500
      4 O5          66.3950    15.3670   -37.5430 os         1 2BA      -0.629400
      5 C5          64.9620    15.3580   -37.5770 c3         1 2BA       0.229600
      6 C4          64.4170    16.6550   -38.1190 c5         1 2BA       0.146300
      7 O4          64.9010    17.7680   -37.3450 os         1 2BA      -0.454000
      8 C3          64.7560    17.0210   -39.5640 c5         1 2BA       0.197300
      9 O3          63.9770    16.2490   -40.4500 os         1 2BA      -0.580400
     10 C2          64.5240    18.5350   -39.5560 c5         1 2BA       0.106800
     11 O2          63.1300    18.7860   -39.5900 oh         1 2BA      -0.719000
     12 C1          65.0960    18.8980   -38.1720 c5         1 2BA       0.295800
     13 N9          66.5140    19.2490   -38.1990 na         1 2BA      -0.300300
     14 C8          67.6110    18.4130   -38.1600 cc         1 2BA       0.460700
     15 N7          68.7510    19.0630   -38.1810 nd         1 2BA      -0.576100
     16 C7          68.3970    20.4000   -38.2390 ca         1 2BA      -0.072600
     17 C6          69.1390    21.5960   -38.2520 ca         1 2BA       0.415900
     18 N6          70.4880    21.6290   -38.2000 nv         1 2BA      -1.061900
     19 N1          68.4640    22.7610   -38.2780 nb         1 2BA      -0.331000
     20 C10         67.1270    22.7410   -38.2920 ca         1 2BA       0.148900
     21 N3          66.3210    21.6800   -38.2840 nb         1 2BA      -0.199500
     22 C9          67.0070    20.5320   -38.2490 ca         1 2BA       0.110500
     23 P1          64.2550    16.2480   -42.0680 p5         1 2BA       1.412300
     24 O1P1        64.4030    17.6470   -42.5600 o          1 2BA      -0.820500
     25 O2P1        63.2380    15.3120   -42.6260 o          1 2BA      -0.820500
     26 O5'1        65.7440    15.6080   -42.1790 os         1 2BA      -0.629400
     27 C5'1        66.0040    14.2060   -42.1350 c3         1 2BA       0.229600
     28 C4'1        67.3810    13.9730   -41.5520 c5         1 2BA       0.146300
     29 O4'1        68.3890    14.6250   -42.3530 os         1 2BA      -0.454000
     30 C3'1        67.5630    14.5390   -40.1510 c5         1 2BA       0.197300
     31 O3'1        67.1030    13.5950   -39.1980 os         1 2BA      -0.580400
     32 C2'1        69.0570    14.8970   -40.0840 c5         1 2BA       0.106800
     33 O2'1        69.8650    13.8060   -39.6960 oh         1 2BA      -0.719000
     34 C1'1        69.3470    15.2640   -41.5420 c5         1 2BA       0.295800
     35 N91         69.2640    16.7160   -41.7450 na         1 2BA      -0.300300
     36 C81         68.2540    17.4480   -42.3280 cc         1 2BA       0.460700
     37 N71         68.4710    18.7440   -42.2830 nd         1 2BA      -0.576100
     38 C51         69.6810    18.8760   -41.6280 ca         1 2BA      -0.072600
     39 C61         70.4400    19.9900   -41.2300 ca         1 2BA       0.415900
     40 N61         70.0810    21.2560   -41.5120 nv         1 2BA      -1.061900
     41 N11         71.5800    19.7690   -40.5460 nb         1 2BA      -0.331000
     42 C21         71.9500    18.5090   -40.2870 ca         1 2BA       0.148900
     43 N31         71.3210    17.3830   -40.6150 nb         1 2BA      -0.199500
     44 C41         70.1870    17.6230   -41.2830 ca         1 2BA       0.110500
     45 H5          64.5910    14.5470   -38.2080 h1         1 2BA       0.041950
     46 H5'A        64.5880    15.2000   -36.5640 h1         1 2BA       0.041950
     47 H4          63.3260    16.5990   -38.0330 h1         1 2BA       0.067200
     48 H3          65.8180    16.8590   -39.7540 h1         1 2BA       0.053200
     49 H2          65.0460    19.0480   -40.3610 h1         1 2BA       0.090700
     50 HO2         62.9950    19.7380   -39.6780 ho         1 2BA       0.529500
     51 H1          64.5760    19.7620   -37.7610 h2         1 2BA       0.087700
     52 H8          67.4990    17.3430   -38.0890 h5         1 2BA       0.122800
     53 HN6         71.0020    20.8150   -38.5070 hn         1 2BA       0.489250
     54 HN6A        70.9270    22.5190   -38.3850 hn         1 2BA       0.489250
     55 H6          66.6430    23.7110   -38.3160 h5         1 2BA       0.027600
     56 HC5         65.2740    13.6870   -41.5090 h1         1 2BA       0.041950
     57 HC5A        65.9460    13.7970   -43.1450 h1         1 2BA       0.041950
     58 HC4         67.5770    12.8970   -41.5400 h1         1 2BA       0.067200
     59 HC3         66.9930    15.4600   -40.0610 h1         1 2BA       0.053200
     60 HC2         69.2310    15.7520   -39.4320 h1         1 2BA       0.090700
     61 HO2A        69.6590    13.6920   -38.7450 ho         1 2BA       0.529500
     62 HC1         70.3510    14.9510   -41.8280 h2         1 2BA       0.087700
     63 HC8         67.3870    16.9640   -42.7430 h5         1 2BA       0.122800
     64 H1N6        69.1550    21.4420   -41.8620 hn         1 2BA       0.489250
     65 H1NA        70.5710    22.0110   -41.0600 hn         1 2BA       0.489250
     66 H7          72.8770    18.3980   -39.7340 h5         1 2BA       0.027600
@<TRIPOS>BOND
     1     1     2 1   
     2     1     3 1   
     3     1     4 1   
     4     1    31 1   
     5     4     5 1   
     6     5     6 1   
     7     5    45 1   
     8     5    46 1   
     9     6     7 1   
    10     6     8 1   
    11     6    47 1   
    12     7    12 1   
    13     8     9 1   
    14     8    10 1   
    15     8    48 1   
    16     9    23 1   
    17    10    11 1   
    18    10    12 1   
    19    10    49 1   
    20    11    50 1   
    21    12    13 1   
    22    12    51 1   
    23    13    14 1   
    24    13    22 1   
    25    14    15 2   
    26    14    52 1   
    27    15    16 1   
    28    16    17 ar  
    29    16    22 ar  
    30    17    18 1   
    31    17    19 ar  
    32    18    53 1   
    33    18    54 1   
    34    19    20 ar  
    35    20    21 ar  
    36    20    55 1   
    37    21    22 ar  
    38    23    24 1   
    39    23    25 1   
    40    23    26 1   
    41    26    27 1   
    42    27    28 1   
    43    27    56 1   
    44    27    57 1   
    45    28    29 1   
    46    28    30 1   
    47    28    58 1   
    48    29    34 1   
    49    30    31 1   
    50    30    32 1   
    51    30    59 1   
    52    32    33 1   
    53    32    34 1   
    54    32    60 1   
    55    33    61 1   
    56    34    35 1   
    57    34    62 1   
    58    35    36 1   
    59    35    44 1   
    60    36    37 2   
    61    36    63 1   
    62    37    38 1   
    63    38    39 ar  
    64    38    44 ar  
    65    39    40 1   
    66    39    41 ar  
    67    40    64 1   
    68    40    65 1   
    69    41    42 ar  
    70    42    43 ar  
    71    42    66 1   
    72    43    44 ar  
@<TRIPOS>SUBSTRUCTURE
     1 2BA         1 TEMP              0 ****  ****    0 ROOT
