@<TRIPOS>MOLECULE
2BB
   55    54     1     0     0
SMALL
No Charge or Current Charge


@<TRIPOS>ATOM
      1 C1          -2.1420     4.0340     0.6770 c3         1 2BB      -0.091600
      2 N1          -4.8740    -0.3150    -0.0610 ns         1 2BB      -0.380400
      3 O1          -1.8930    -2.0820    -0.5460 oh         1 2BB      -0.634000
      4 C2          -1.8530     2.5290     0.8900 c3         1 2BB      -0.058700
      5 N2           1.0890    -0.1860    -0.5230 ns         1 2BB      -0.495900
      6 C3          -2.8780     1.9300     1.8800 c3         1 2BB      -0.091600
      7 N3           4.6390     0.9440    -0.1890 n          1 2BB      -0.403800
      8 O3          -6.1360     0.1670    -0.5830 oh         1 2BB      -0.420100
      9 C4          -1.7760     1.7950    -0.4850 c3         1 2BB      -0.067400
     10 C5          -1.3270     0.2920    -0.5420 c3         1 2BB      -0.170700
     11 O5           3.2570     0.7160    -2.0000 o          1 2BB      -0.617100
     12 C6          -2.4110    -0.7770    -0.1960 c3         1 2BB       0.111300
     13 C7          -3.7850    -0.5250    -0.9040 c          1 2BB       0.569100
     14 C8          -0.0290     0.0340     0.2510 c          1 2BB       0.616100
     15 C9           2.4590    -0.4370    -0.0070 c3         1 2BB       0.043700
     16 C10          3.4620     0.4620    -0.8160 c          1 2BB       0.596100
     17 C11          5.6840     1.6060    -1.0020 c3         1 2BB       0.085800
     18 C12          4.6830     1.1960     1.2710 c3         1 2BB       0.085800
     19 C13          2.8170    -1.9750    -0.0220 c3         1 2BB      -0.050000
     20 C14          2.7860    -2.5410    -1.4710 c3         1 2BB      -0.087100
     21 C15          4.2280    -2.2330     0.5730 c3         1 2BB      -0.087100
     22 C16          1.7960    -2.7710     0.8390 c3         1 2BB      -0.087100
     23 H1          -2.1320     4.5720     1.6330 hc         1 2BB       0.034533
     24 H1A         -1.3830     4.4890     0.0300 hc         1 2BB       0.034533
     25 H1B         -3.1240     4.1820     0.2110 hc         1 2BB       0.034533
     26 HN1         -4.7250    -0.1880     0.9390 hn         1 2BB       0.344500
     27 HO1         -2.0490    -2.2090    -1.5090 ho         1 2BB       0.458000
     28 H2          -0.8660     2.4750     1.3650 hc         1 2BB       0.057700
     29 HN2          0.9670    -0.1290    -1.5270 hn         1 2BB       0.332500
     30 H3          -2.5790     0.9300     2.2080 hc         1 2BB       0.034533
     31 H3A         -2.9480     2.5520     2.7810 hc         1 2BB       0.034533
     32 H3B         -3.8750     1.8800     1.4290 hc         1 2BB       0.034533
     33 HO3         -6.7980    -0.4680    -0.2200 ho         1 2BB       0.446000
     34 H4          -2.7350     1.9140    -1.0030 hc         1 2BB       0.052200
     35 H4A         -1.0570     2.3530    -1.0990 hc         1 2BB       0.052200
     36 H5          -1.0850     0.1330    -1.6000 hc         1 2BB       0.068700
     37 H6          -2.6000    -0.7480     0.8830 h1         1 2BB       0.100700
     38 H9           2.4880    -0.0990     1.0350 h1         1 2BB       0.089700
     39 H11          5.3550     2.6170    -1.2750 h1         1 2BB       0.043700
     40 H11A         6.6210     1.6730    -0.4350 h1         1 2BB       0.043700
     41 H11B         5.8720     1.0280    -1.9150 h1         1 2BB       0.043700
     42 H12          4.8450     0.2580     1.8130 h1         1 2BB       0.043700
     43 H12A         5.5020     1.8840     1.5160 h1         1 2BB       0.043700
     44 H12B         3.7420     1.6520     1.6020 h1         1 2BB       0.043700
     45 H14          3.5310    -2.0490    -2.1080 hc         1 2BB       0.039144
     46 H14A         3.0080    -3.6150    -1.4740 hc         1 2BB       0.039144
     47 H14B         1.8010    -2.4060    -1.9330 hc         1 2BB       0.039144
     48 H15          4.2860    -1.8870     1.6110 hc         1 2BB       0.039144
     49 H15A         4.4610    -3.3050     0.5720 hc         1 2BB       0.039144
     50 H15B         5.0120    -1.7320    -0.0070 hc         1 2BB       0.039144
     51 H16          0.7870    -2.7250     0.4130 hc         1 2BB       0.039144
     52 H16A         2.0750    -3.8310     0.9000 hc         1 2BB       0.039144
     53 H16B         1.7530    -2.3760     1.8610 hc         1 2BB       0.039144
     54 O4           0.0180     0.0230     1.4730 o          1 2BB      -0.605100
     55 O2          -3.9040    -0.5540    -2.1250 o          1 2BB      -0.582100
@<TRIPOS>BOND
     1     1     4 1   
     2     1    23 1   
     3     1    24 1   
     4     1    25 1   
     5     2     8 1   
     6     2    13 1   
     7     2    26 1   
     8     3    12 1   
     9     3    27 1   
    10     4     6 1   
    11     4     9 1   
    12     4    28 1   
    13     5    14 1   
    14     5    15 1   
    15     5    29 1   
    16     6    30 1   
    17     6    31 1   
    18     6    32 1   
    19     7    16 1   
    20     7    17 1   
    21     7    18 1   
    22     8    33 1   
    23     9    10 1   
    24     9    34 1   
    25     9    35 1   
    26    10    12 1   
    27    10    14 1   
    28    10    36 1   
    29    11    16 2   
    30    12    13 1   
    31    12    37 1   
    32    13    55 2   
    33    14    54 2   
    34    15    16 1   
    35    15    19 1   
    36    15    38 1   
    37    17    39 1   
    38    17    40 1   
    39    17    41 1   
    40    18    42 1   
    41    18    43 1   
    42    18    44 1   
    43    19    20 1   
    44    19    21 1   
    45    19    22 1   
    46    20    45 1   
    47    20    46 1   
    48    20    47 1   
    49    21    48 1   
    50    21    49 1   
    51    21    50 1   
    52    22    51 1   
    53    22    52 1   
    54    22    53 1   
@<TRIPOS>SUBSTRUCTURE
     1 2BB         1 TEMP              0 ****  ****    0 ROOT
