@<TRIPOS>MOLECULE
2BB
   55    54     1     0     0
SMALL
bcc


@<TRIPOS>ATOM
      1 C1          -1.6210     3.9160     0.1130 c3         1 2BB      -0.091600
      2 N1          -4.7840     0.0150     0.0400 ns         1 2BB      -0.447400
      3 O1          -2.1740    -2.1660     0.2670 oh         1 2BB      -0.571800
      4 C2          -1.4700     2.4780     0.6050 c3         1 2BB      -0.058700
      5 N2           0.9740    -0.3150    -0.4410 ns         1 2BB      -0.562900
      6 C3          -2.4180     2.2320     1.7730 c3         1 2BB      -0.091600
      7 N3           4.1660     1.1230     0.1550 n          1 2BB      -0.470800
      8 O3          -5.9260     0.3460    -0.6190 oh         1 2BB      -0.381100
      9 C4          -1.6750     1.5350    -0.5850 c3         1 2BB      -0.067400
     10 C5          -1.4080     0.0250    -0.4170 c3         1 2BB      -0.170700
     11 O5           3.0400     0.8230    -1.7690 o          1 2BB      -0.617100
     12 C6          -2.5250    -0.8070     0.2240 c3         1 2BB       0.088100
     13 C7          -3.8100    -0.6570    -0.5870 c          1 2BB       0.636100
     14 C8          -0.1130    -0.2190     0.3440 c          1 2BB       0.683100
     15 C9           2.3160    -0.5320     0.0420 c3         1 2BB       0.043700
     16 C10          3.2080     0.5390    -0.5870 c          1 2BB       0.663100
     17 C11          5.1020     2.0280    -0.4870 c3         1 2BB       0.085800
     18 C12          4.3590     0.9810     1.5840 c3         1 2BB       0.085800
     19 C13          2.8120    -1.9780    -0.2670 c3         1 2BB      -0.050000
     20 C14          2.7200    -2.3140    -1.7560 c3         1 2BB      -0.087100
     21 C15          4.2580    -2.1440     0.1990 c3         1 2BB      -0.087100
     22 C16          1.9300    -2.9530     0.5170 c3         1 2BB      -0.087100
     23 H1          -1.4270     4.6290     0.9160 hc         1 2BB       0.034533
     24 H1A         -0.9290     4.1380    -0.7010 hc         1 2BB       0.034533
     25 H1B         -2.6350     4.0990    -0.2520 hc         1 2BB       0.034533
     26 HN1         -4.6480     0.4770     0.9280 hn         1 2BB       0.344500
     27 HO1         -2.1370    -2.4990    -0.6380 ho         1 2BB       0.419000
     28 H2          -0.4440     2.3620     0.9690 hc         1 2BB       0.057700
     29 HN2          0.8610    -0.2000    -1.4360 hn         1 2BB       0.332500
     30 H3          -2.2700     1.2550     2.2290 hc         1 2BB       0.034533
     31 H3A         -2.2650     2.9770     2.5550 hc         1 2BB       0.034533
     32 H3B         -3.4610     2.3140     1.4550 hc         1 2BB       0.034533
     33 HO3         -6.5740    -0.3370    -0.4000 ho         1 2BB       0.407000
     34 H4          -2.6890     1.6750    -0.9760 hc         1 2BB       0.052200
     35 H4A         -1.0180     1.8770    -1.3890 hc         1 2BB       0.052200
     36 H5          -1.2900    -0.3640    -1.4350 hc         1 2BB       0.068700
     37 H6          -2.6860    -0.5010     1.2590 h1         1 2BB       0.100700
     38 H9           2.2730    -0.4360     1.1250 h1         1 2BB       0.089700
     39 H11          4.7850     3.0680    -0.3850 h1         1 2BB       0.043700
     40 H11A         6.0780     1.9230    -0.0150 h1         1 2BB       0.043700
     41 H11B         5.2040     1.7970    -1.5430 h1         1 2BB       0.043700
     42 H12          5.1840     0.3050     1.8120 h1         1 2BB       0.043700
     43 H12A         4.5920     1.9580     2.0070 h1         1 2BB       0.043700
     44 H12B         3.4680     0.6220     2.0890 h1         1 2BB       0.043700
     45 H14          3.3760    -1.6940    -2.3650 hc         1 2BB       0.039144
     46 H14A         3.0120    -3.3540    -1.9110 hc         1 2BB       0.039144
     47 H14B         1.7020    -2.2080    -2.1350 hc         1 2BB       0.039144
     48 H15          4.3710    -1.9160     1.2610 hc         1 2BB       0.039144
     49 H15A         4.5780    -3.1780     0.0550 hc         1 2BB       0.039144
     50 H15B         4.9520    -1.5120    -0.3580 hc         1 2BB       0.039144
     51 H16          0.8790    -2.8770     0.2330 hc         1 2BB       0.039144
     52 H16A         2.2470    -3.9790     0.3240 hc         1 2BB       0.039144
     53 H16B         2.0000    -2.7800     1.5920 hc         1 2BB       0.039144
     54 O4          -0.0750    -0.2950     1.5630 o          1 2BB      -0.605100
     55 O2          -3.9160    -1.1450    -1.6990 o          1 2BB      -0.582100
@<TRIPOS>BOND
     1     1     4 1   
     2     1    23 1   
     3     1    24 1   
     4     1    25 1   
     5     2     8 1   
     6     2    13 1   
     7     2    26 1   
     8     3    12 1   
     9     3    27 1   
    10     4     6 1   
    11     4     9 1   
    12     4    28 1   
    13     5    14 1   
    14     5    15 1   
    15     5    29 1   
    16     6    30 1   
    17     6    31 1   
    18     6    32 1   
    19     7    16 1   
    20     7    17 1   
    21     7    18 1   
    22     8    33 1   
    23     9    10 1   
    24     9    34 1   
    25     9    35 1   
    26    10    12 1   
    27    10    14 1   
    28    10    36 1   
    29    11    16 2   
    30    12    13 1   
    31    12    37 1   
    32    13    55 2   
    33    14    54 2   
    34    15    16 1   
    35    15    19 1   
    36    15    38 1   
    37    17    39 1   
    38    17    40 1   
    39    17    41 1   
    40    18    42 1   
    41    18    43 1   
    42    18    44 1   
    43    19    20 1   
    44    19    21 1   
    45    19    22 1   
    46    20    45 1   
    47    20    46 1   
    48    20    47 1   
    49    21    48 1   
    50    21    49 1   
    51    21    50 1   
    52    22    51 1   
    53    22    52 1   
    54    22    53 1   
@<TRIPOS>SUBSTRUCTURE
     1 2BB         1 TEMP              0 ****  ****    0 ROOT
