@<TRIPOS>MOLECULE
2BC
   37    39     1     0     0
SMALL
No Charge or Current Charge


@<TRIPOS>ATOM
      1 CAN         -5.4950    -0.5410     0.4680 ca         1 2BC      -0.025000
      2 CAY         -6.8480    -0.1530     0.4430 ca         1 2BC      -0.052000
      3 CAK         -7.8150    -0.9020     1.1420 ca         1 2BC      -0.086000
      4 CAH         -9.1660    -0.5110     1.1140 ca         1 2BC      -0.107000
      5 CAG         -9.5540     0.6270     0.3880 ca         1 2BC      -0.092000
      6 CAJ         -8.5920     1.3770    -0.3120 ca         1 2BC      -0.105000
      7 CAX         -7.2390     0.9890    -0.2860 ca         1 2BC      -0.019000
      8 CAL         -6.2730     1.7340    -0.9820 ca         1 2BC      -0.100000
      9 CAI         -4.9220     1.3470    -0.9570 ca         1 2BC      -0.094000
     10 CAV         -4.5130     0.2010    -0.2290 ca         1 2BC      -0.162600
     11 CAQ         -3.0660    -0.2540    -0.1730 c          1 2BC       0.634700
     12 OAA         -2.7260    -1.2450     0.4650 o          1 2BC      -0.547100
     13 NAP         -2.1410     0.5170    -0.8800 ns         1 2BC      -0.266900
     14 NAO         -0.7810     0.2410    -0.9420 n2         1 2BC      -0.491300
     15 CAF         -0.0010     0.6620     0.0080 ce         1 2BC       0.423800
     16 CAU          1.4620     0.3530     0.0300 ca         1 2BC      -0.296900
     17 CAM          2.2230     0.8840     1.0900 ca         1 2BC       0.035000
     18 CAR          3.6010     0.6370     1.1750 ca         1 2BC      -0.180900
     19 BrAD         4.5900     1.3850     2.6410 br         1 2BC      -0.093100
     20 CAS          4.2390    -0.1460     0.1990 ca         1 2BC       0.257100
     21 OAB          5.5790    -0.3810     0.2910 oh         1 2BC      -0.500100
     22 CAW          3.4950    -0.6830    -0.8650 ca         1 2BC      -0.145900
     23 BrAE         4.3720    -1.7590    -2.2050 br         1 2BC      -0.044100
     24 CAT          2.1120    -0.4350    -0.9500 ca         1 2BC       0.278100
     25 OAC          1.4070    -0.9640    -1.9870 oh         1 2BC      -0.510100
     26 HAN         -5.2090    -1.4250     1.0350 ha         1 2BC       0.139000
     27 HAK         -7.5240    -1.7850     1.7070 ha         1 2BC       0.120000
     28 HAH         -9.9100    -1.0910     1.6550 ha         1 2BC       0.118000
     29 HAG        -10.5990     0.9290     0.3670 ha         1 2BC       0.117000
     30 HAJ         -8.9000     2.2570    -0.8720 ha         1 2BC       0.117000
     31 HAL         -6.5670     2.6160    -1.5460 ha         1 2BC       0.118000
     32 HAI         -4.2100     1.9530    -1.5100 ha         1 2BC       0.109000
     33 HNAP        -2.5280     1.3160    -1.3720 hn         1 2BC       0.315500
     34 HAF         -0.3900     1.2630     0.8330 h4         1 2BC      -0.007200
     35 HAM          1.7440     1.4930     1.8550 ha         1 2BC       0.126000
     36 HOAB         5.8980     0.0790     1.0960 ho         1 2BC       0.488000
     37 HOAC         0.4730    -0.6680    -1.8540 ho         1 2BC       0.532000
@<TRIPOS>BOND
     1     1     2 ar  
     2     1    10 ar  
     3     1    26 1   
     4     2     3 ar  
     5     2     7 ar  
     6     3     4 ar  
     7     3    27 1   
     8     4     5 ar  
     9     4    28 1   
    10     5     6 ar  
    11     5    29 1   
    12     6     7 ar  
    13     6    30 1   
    14     7     8 ar  
    15     8     9 ar  
    16     8    31 1   
    17     9    10 ar  
    18     9    32 1   
    19    10    11 1   
    20    11    12 2   
    21    11    13 1   
    22    13    14 1   
    23    13    33 1   
    24    14    15 2   
    25    15    16 1   
    26    15    34 1   
    27    16    17 ar  
    28    16    24 ar  
    29    17    18 ar  
    30    17    35 1   
    31    18    19 1   
    32    18    20 ar  
    33    20    21 1   
    34    20    22 ar  
    35    21    36 1   
    36    22    23 1   
    37    22    24 ar  
    38    24    25 1   
    39    25    37 1   
@<TRIPOS>SUBSTRUCTURE
     1 2BC         1 TEMP              0 ****  ****    0 ROOT
