@<TRIPOS>MOLECULE
2BC
   37    39     1     0     0
SMALL
abcg2


@<TRIPOS>ATOM
      1 CAN         -5.5140    -0.7370    -0.0450 ca         1 2BC      -0.025000
      2 CAY         -6.8570    -0.3190     0.0560 ca         1 2BC      -0.052000
      3 CAK         -7.9060    -1.2380     0.2990 ca         1 2BC      -0.086000
      4 CAH         -9.2000    -0.8060     0.3910 ca         1 2BC      -0.107000
      5 CAG         -9.5060     0.5640     0.2420 ca         1 2BC      -0.092000
      6 CAJ         -8.5140     1.4760     0.0040 ca         1 2BC      -0.105000
      7 CAX         -7.1660     1.0580    -0.0930 ca         1 2BC      -0.019000
      8 CAL         -6.1120     1.9680    -0.3400 ca         1 2BC      -0.100000
      9 CAI         -4.8180     1.5390    -0.4220 ca         1 2BC      -0.094000
     10 CAV         -4.5040     0.1660    -0.2650 ca         1 2BC      -0.162600
     11 CAQ         -3.1140    -0.3610    -0.3480 c          1 2BC       0.634700
     12 OAA         -2.8670    -1.5220    -0.6140 o          1 2BC      -0.547100
     13 NAP         -2.1330     0.5470    -0.0890 ns         1 2BC      -0.266900
     14 NAO         -0.8510     0.1580    -0.1440 n2         1 2BC      -0.491300
     15 CAF          0.0750     0.9880     0.1400 ce         1 2BC       0.423800
     16 CAU          1.4620     0.5690     0.0960 ca         1 2BC      -0.296900
     17 CAM          2.4580     1.4960     0.3870 ca         1 2BC       0.035000
     18 CAR          3.7910     1.1460     0.3690 ca         1 2BC      -0.180900
     19 BRAD         5.1010     2.4430     0.7660 br         1 2BC      -0.093100
     20 CAS          4.1810    -0.1650     0.0610 ca         1 2BC       0.257100
     21 OAB          5.4390    -0.5880     0.0280 oh         1 2BC      -0.500100
     22 CAW          3.1810    -1.0950    -0.2310 ca         1 2BC      -0.145900
     23 BRAE         3.6690    -2.8570    -0.6460 br         1 2BC      -0.044100
     24 CAT          1.8290    -0.7560    -0.2250 ca         1 2BC       0.278100
     25 OAC          0.9390    -1.6900    -0.5180 oh         1 2BC      -0.510100
     26 HAN         -5.2880    -1.7900     0.0670 ha         1 2BC       0.139000
     27 HAK         -7.6690    -2.2890     0.4110 ha         1 2BC       0.120000
     28 HAH         -9.9960    -1.5140     0.5790 ha         1 2BC       0.118000
     29 HAG        -10.5360     0.8910     0.3160 ha         1 2BC       0.117000
     30 HAJ         -8.7480     2.5270    -0.1120 ha         1 2BC       0.117000
     31 HAL         -6.3420     3.0180    -0.4730 ha         1 2BC       0.118000
     32 HAI         -4.0470     2.2670    -0.6390 ha         1 2BC       0.109000
     33 HNAP        -2.3510     1.4780     0.2420 hn         1 2BC       0.315500
     34 HAF         -0.1330     2.0200     0.4250 h4         1 2BC      -0.007200
     35 HAM          2.1680     2.5100     0.6340 ha         1 2BC       0.126000
     36 HOAB         6.0700     0.1120     0.2420 ho         1 2BC       0.488000
     37 HOAC         0.0330    -1.2960    -0.4710 ho         1 2BC       0.532000
@<TRIPOS>BOND
     1     1     2 ar  
     2     1    10 ar  
     3     1    26 1   
     4     2     3 ar  
     5     2     7 ar  
     6     3     4 ar  
     7     3    27 1   
     8     4     5 ar  
     9     4    28 1   
    10     5     6 ar  
    11     5    29 1   
    12     6     7 ar  
    13     6    30 1   
    14     7     8 ar  
    15     8     9 ar  
    16     8    31 1   
    17     9    10 ar  
    18     9    32 1   
    19    10    11 1   
    20    11    12 2   
    21    11    13 1   
    22    13    14 1   
    23    13    33 1   
    24    14    15 2   
    25    15    16 1   
    26    15    34 1   
    27    16    17 ar  
    28    16    24 ar  
    29    17    18 ar  
    30    17    35 1   
    31    18    19 1   
    32    18    20 ar  
    33    20    21 1   
    34    20    22 ar  
    35    21    36 1   
    36    22    23 1   
    37    22    24 ar  
    38    24    25 1   
    39    25    37 1   
@<TRIPOS>SUBSTRUCTURE
     1 2BC         1 TEMP              0 ****  ****    0 ROOT
