@<TRIPOS>MOLECULE
2BE
   31    32     1     0     0
SMALL
abcg2


@<TRIPOS>ATOM
      1 CAJ         -5.7530    -1.1490    -0.3760 ca         1 2BE      -0.061000
      2 CAH         -7.0930    -0.8050    -0.4190 ca         1 2BE      -0.111500
      3 CAP         -7.4740     0.4690    -0.0240 ca         1 2BE       0.141000
      4 CLAD        -9.1460     0.9070    -0.0670 cl         1 2BE      -0.187000
      5 CAI         -6.5400     1.3970     0.4100 ca         1 2BE      -0.111500
      6 CAK         -5.2010     1.0440     0.4380 ca         1 2BE      -0.061000
      7 CAT         -4.7930    -0.2280     0.0390 ca         1 2BE      -0.158600
      8 CAO         -3.3730    -0.6720     0.0730 c          1 2BE       0.633700
      9 OAA         -3.0590    -1.8400     0.1980 o          1 2BE      -0.541100
     10 NAN         -2.4540     0.3240    -0.0540 ns         1 2BE      -0.266900
     11 NAM         -1.1500     0.0210     0.0110 n2         1 2BE      -0.496300
     12 CAG         -0.2770     0.9370    -0.1520 ce         1 2BE       0.429800
     13 CAU          1.1340     0.6130    -0.0820 ca         1 2BE      -0.300900
     14 CAL          2.0740     1.6290    -0.2420 ca         1 2BE       0.031000
     15 CAS          3.4240     1.3710    -0.1840 ca         1 2BE      -0.123900
     16 BRAE         4.6650     2.7670    -0.4000 br         1 2BE      -0.067100
     17 CAQ          3.8950     0.0700     0.0380 ca         1 2BE       0.260100
     18 OAB          5.2100    -0.1110     0.0840 oh         1 2BE      -0.501100
     19 CAV          2.9540    -0.9500     0.1950 ca         1 2BE      -0.201900
     20 BRAF         3.5300    -2.7160     0.4900 br         1 2BE      -0.067100
     21 CAR          1.5810    -0.7050     0.1410 ca         1 2BE       0.282100
     22 OAC          0.7520    -1.7240     0.2990 oh         1 2BE      -0.513100
     23 HAJ         -5.4540    -2.1430    -0.6800 ha         1 2BE       0.129000
     24 HAH         -7.8300    -1.5220    -0.7530 ha         1 2BE       0.136500
     25 HAI         -6.8490     2.3810     0.7320 ha         1 2BE       0.136500
     26 HAK         -4.4900     1.7740     0.8030 ha         1 2BE       0.129000
     27 HNAN        -2.7330     1.2690    -0.2850 hn         1 2BE       0.315500
     28 HAG         -0.5490     1.9750    -0.3480 h4         1 2BE      -0.006200
     29 HAL          1.7230     2.6390    -0.4160 ha         1 2BE       0.128000
     30 HOAB         5.4520    -1.0320     0.2470 ho         1 2BE       0.490000
     31 HOAC        -0.1770    -1.3910     0.2430 ho         1 2BE       0.532000
@<TRIPOS>BOND
     1     1     2 ar  
     2     1     7 ar  
     3     1    23 1   
     4     2     3 ar  
     5     2    24 1   
     6     3     4 1   
     7     3     5 ar  
     8     5     6 ar  
     9     5    25 1   
    10     6     7 ar  
    11     6    26 1   
    12     7     8 1   
    13     8     9 2   
    14     8    10 1   
    15    10    11 1   
    16    10    27 1   
    17    11    12 2   
    18    12    13 1   
    19    12    28 1   
    20    13    14 ar  
    21    13    21 ar  
    22    14    15 ar  
    23    14    29 1   
    24    15    16 1   
    25    15    17 ar  
    26    17    18 1   
    27    17    19 ar  
    28    18    30 1   
    29    19    20 1   
    30    19    21 ar  
    31    21    22 1   
    32    22    31 1   
@<TRIPOS>SUBSTRUCTURE
     1 2BE         1 TEMP              0 ****  ****    0 ROOT
