@<TRIPOS>MOLECULE
2BE
   31    32     1     0     0
SMALL
No Charge or Current Charge


@<TRIPOS>ATOM
      1 CAJ         -5.7220    -0.6710    -1.0850 ca         1 2BE      -0.061000
      2 CAH         -7.0930    -0.3640    -1.0390 ca         1 2BE      -0.111500
      3 CAP         -7.5790     0.5350    -0.0800 ca         1 2BE       0.141000
      4 ClAD        -9.2950     0.9180    -0.0240 cl         1 2BE      -0.187000
      5 CAI         -6.6980     1.1290     0.8340 ca         1 2BE      -0.111500
      6 CAK         -5.3240     0.8260     0.7940 ca         1 2BE      -0.061000
      7 CAT         -4.8150    -0.0820    -0.1700 ca         1 2BE      -0.158600
      8 CAO         -3.3410    -0.4400    -0.2530 c          1 2BE       0.633700
      9 OAA         -2.9170    -1.2250    -1.0950 o          1 2BE      -0.541100
     10 NAN         -2.4920     0.1720     0.6720 ns         1 2BE      -0.266900
     11 NAM         -1.1220    -0.0500     0.7390 n2         1 2BE      -0.496300
     12 CAG         -0.3260     0.6260    -0.0360 ce         1 2BE       0.429800
     13 CAU          1.1510     0.3950    -0.0510 ca         1 2BE      -0.300900
     14 CAL          1.9270     1.2030    -0.9050 ca         1 2BE       0.031000
     15 CAS          3.3190     1.0440    -0.9710 ca         1 2BE      -0.123900
     16 BrAE         4.3290     2.1730    -2.1530 br         1 2BE      -0.067100
     17 CAQ          3.9550     0.0720    -0.1810 ca         1 2BE       0.260100
     18 OAB          5.3090    -0.0840    -0.2430 oh         1 2BE      -0.501100
     19 CAV          3.1970    -0.7420     0.6770 ca         1 2BE      -0.201900
     20 BrAF         4.0700    -2.0770     1.7610 br         1 2BE      -0.067100
     21 CAR          1.7990    -0.5810     0.7420 ca         1 2BE       0.282100
     22 OAC          1.0830    -1.3790     1.5760 oh         1 2BE      -0.513100
     23 HAJ         -5.3670    -1.3720    -1.8380 ha         1 2BE       0.129000
     24 HAH         -7.7770    -0.8230    -1.7470 ha         1 2BE       0.136500
     25 HAI         -7.0790     1.8250     1.5770 ha         1 2BE       0.136500
     26 HAK         -4.6760     1.3080     1.5210 ha         1 2BE       0.129000
     27 HNAN        -2.9420     0.8070     1.3240 hn         1 2BE       0.315500
     28 HAG         -0.7130     1.3950    -0.7090 h4         1 2BE      -0.006200
     29 HAL          1.4500     1.9620    -1.5240 ha         1 2BE       0.128000
     30 HOAB         5.5470    -0.8040     0.3770 ho         1 2BE       0.490000
     31 HOAC         0.1400    -1.0990     1.4680 ho         1 2BE       0.532000
@<TRIPOS>BOND
     1     1     2 ar  
     2     1     7 ar  
     3     1    23 1   
     4     2     3 ar  
     5     2    24 1   
     6     3     4 1   
     7     3     5 ar  
     8     5     6 ar  
     9     5    25 1   
    10     6     7 ar  
    11     6    26 1   
    12     7     8 1   
    13     8     9 2   
    14     8    10 1   
    15    10    11 1   
    16    10    27 1   
    17    11    12 2   
    18    12    13 1   
    19    12    28 1   
    20    13    14 ar  
    21    13    21 ar  
    22    14    15 ar  
    23    14    29 1   
    24    15    16 1   
    25    15    17 ar  
    26    17    18 1   
    27    17    19 ar  
    28    18    30 1   
    29    19    20 1   
    30    19    21 ar  
    31    21    22 1   
    32    22    31 1   
@<TRIPOS>SUBSTRUCTURE
     1 2BE         1 TEMP              0 ****  ****    0 ROOT
