@<TRIPOS>MOLECULE
2BF
   33    34     1     0     0
SMALL
abcg2


@<TRIPOS>ATOM
      1 C1          64.5080   119.5050    10.2280 ca         1 2BF      -0.127500
      2 C2          63.9440   119.1200    11.4410 ca         1 2BF      -0.180000
      3 C3          64.6050   118.1790    12.2280 ca         1 2BF      -0.127500
      4 C4          65.8140   117.6360    11.8090 ca         1 2BF      -0.113000
      5 C5          66.3950   118.0190    10.5960 ca         1 2BF       0.018700
      6 C6          65.7170   118.9540     9.8130 ca         1 2BF      -0.113000
      7 C7          67.7200   117.4490    10.1440 c3         1 2BF      -0.077200
      8 C8          66.8760   113.7680     9.8830 ca         1 2BF      -0.039300
      9 C9          66.1750   113.1770    10.9350 ca         1 2BF      -0.099000
     10 C10         66.3280   111.8230    11.2230 ca         1 2BF      -0.127000
     11 C11         67.1830   111.0400    10.4540 ca         1 2BF      -0.143000
     12 C12         67.8850   111.6190     9.3990 ca         1 2BF      -0.127000
     13 C13         67.7360   112.9740     9.1230 ca         1 2BF      -0.099000
     14 P           69.1850   118.2200    11.0570 p5         1 2BF       1.272500
     15 O1P         68.9060   119.7240    11.0950 o          1 2BF      -0.911167
     16 O2P         69.1700   117.5520    12.4380 o          1 2BF      -0.911167
     17 O3P         70.4140   117.8550    10.2190 o          1 2BF      -0.911167
     18 N           67.8230   115.9880    10.2480 n7         1 2BF      -0.817400
     19 C19         66.7370   115.2420     9.6110 c3         1 2BF       0.193100
     20 H1          64.0020   120.2290     9.6000 ha         1 2BF       0.070000
     21 H2          63.0010   119.5410    11.7650 ha         1 2BF       0.065000
     22 H3          64.1730   117.8660    13.1720 ha         1 2BF       0.070000
     23 H4          66.3190   116.9090    12.4310 ha         1 2BF       0.114000
     24 H6          66.1460   119.2540     8.8630 ha         1 2BF       0.114000
     25 H7          67.8510   117.7140     9.0900 h1         1 2BF       0.044700
     26 H9          65.5030   113.7840    11.5310 ha         1 2BF       0.118000
     27 H10         65.7740   111.3800    12.0420 ha         1 2BF       0.088500
     28 H11         67.3000   109.9860    10.6720 ha         1 2BF       0.082000
     29 H12         68.5530   111.0150     8.7970 ha         1 2BF       0.088500
     30 H13         68.2870   113.4220     8.3050 ha         1 2BF       0.118000
     31 HN          67.9040   115.7350    11.2270 hn         1 2BF       0.434000
     32 H191        65.7450   115.5730     9.9440 h1         1 2BF       0.015700
     33 H192        66.7910   115.4300     8.5340 h1         1 2BF       0.015700
@<TRIPOS>BOND
     1     1     2 ar  
     2     1     6 ar  
     3     1    20 1   
     4     2     3 ar  
     5     2    21 1   
     6     3     4 ar  
     7     3    22 1   
     8     4     5 ar  
     9     4    23 1   
    10     5     6 ar  
    11     5     7 1   
    12     6    24 1   
    13     7    14 1   
    14     7    18 1   
    15     7    25 1   
    16     8     9 ar  
    17     8    13 ar  
    18     8    19 1   
    19     9    10 ar  
    20     9    26 1   
    21    10    11 ar  
    22    10    27 1   
    23    11    12 ar  
    24    11    28 1   
    25    12    13 ar  
    26    12    29 1   
    27    13    30 1   
    28    14    15 1   
    29    14    16 1   
    30    14    17 1   
    31    18    19 1   
    32    18    31 1   
    33    19    32 1   
    34    19    33 1   
@<TRIPOS>SUBSTRUCTURE
     1 2BF         1 TEMP              0 ****  ****    0 ROOT
