@<TRIPOS>MOLECULE
2BF
   33    34     1     0     0
SMALL
No Charge or Current Charge


@<TRIPOS>ATOM
      1 C1          64.4030   119.2070    10.0840 ca         1 2BF      -0.127500
      2 C2          63.9270   119.0710    11.3980 ca         1 2BF      -0.180000
      3 C3          64.7100   118.4180    12.3630 ca         1 2BF      -0.127500
      4 C4          65.9710   117.9020    12.0150 ca         1 2BF      -0.113000
      5 C5          66.4620   118.0380    10.6980 ca         1 2BF       0.018700
      6 C6          65.6640   118.6920     9.7360 ca         1 2BF      -0.113000
      7 C7          67.8240   117.4560    10.3030 c3         1 2BF      -0.077200
      8 C8          66.8730   113.7200     9.8800 ca         1 2BF      -0.039300
      9 C9          66.1200   113.0870    10.8890 ca         1 2BF      -0.099000
     10 C10         66.2130   111.6960    11.0770 ca         1 2BF      -0.127000
     11 C11         67.0580   110.9300    10.2560 ca         1 2BF      -0.143000
     12 C12         67.8110   111.5550     9.2490 ca         1 2BF      -0.127000
     13 C13         67.7190   112.9460     9.0610 ca         1 2BF      -0.099000
     14 P           69.2520   118.4520    11.0980 p5         1 2BF       1.272500
     15 O1P         68.9800   119.9160    10.9790 o          1 2BF      -0.911167
     16 O2P         69.3800   118.0780    12.5400 o          1 2BF      -0.911167
     17 O3P         70.5300   118.1330    10.3900 o          1 2BF      -0.911167
     18 N           67.8110   115.9440    10.4290 n7         1 2BF      -0.817400
     19 C19         66.7670   115.2270     9.6720 c3         1 2BF       0.193100
     20 H1          63.7960   119.7100     9.3350 ha         1 2BF       0.070000
     21 H2          62.9520   119.4690    11.6670 ha         1 2BF       0.065000
     22 H3          64.3420   118.3090    13.3800 ha         1 2BF       0.070000
     23 H4          66.5690   117.3950    12.7680 ha         1 2BF       0.114000
     24 H6          66.0210   118.7980     8.7140 ha         1 2BF       0.114000
     25 H7          67.9820   117.6990     9.2450 h1         1 2BF       0.044700
     26 H9          65.4630   113.6730    11.5280 ha         1 2BF       0.118000
     27 H10         65.6290   111.2130    11.8570 ha         1 2BF       0.088500
     28 H11         67.1290   109.8550    10.4010 ha         1 2BF       0.082000
     29 H12         68.4660   110.9640     8.6130 ha         1 2BF       0.088500
     30 H13         68.3060   113.4250     8.2800 ha         1 2BF       0.118000
     31 HN          67.7140   115.7000    11.4230 hn         1 2BF       0.434000
     32 H191        65.7670   115.5540     9.9890 h1         1 2BF       0.015700
     33 H192        66.8570   115.4490     8.6000 h1         1 2BF       0.015700
@<TRIPOS>BOND
     1     1     2 ar  
     2     1     6 ar  
     3     1    20 1   
     4     2     3 ar  
     5     2    21 1   
     6     3     4 ar  
     7     3    22 1   
     8     4     5 ar  
     9     4    23 1   
    10     5     6 ar  
    11     5     7 1   
    12     6    24 1   
    13     7    14 1   
    14     7    18 1   
    15     7    25 1   
    16     8     9 ar  
    17     8    13 ar  
    18     8    19 1   
    19     9    10 ar  
    20     9    26 1   
    21    10    11 ar  
    22    10    27 1   
    23    11    12 ar  
    24    11    28 1   
    25    12    13 ar  
    26    12    29 1   
    27    13    30 1   
    28    14    15 1   
    29    14    16 1   
    30    14    17 1   
    31    18    19 1   
    32    18    31 1   
    33    19    32 1   
    34    19    33 1   
@<TRIPOS>SUBSTRUCTURE
     1 2BF         1 TEMP              0 ****  ****    0 ROOT
