@<TRIPOS>MOLECULE
2BG
   19    20     1     0     0
SMALL
bcc


@<TRIPOS>ATOM
      1 NAG          0.5840    -1.2740     0.3460 nc         1 2BG      -0.535100
      2 CAJ         -0.6940    -0.7910     0.1720 ca         1 2BG       0.094400
      3 CAD         -1.8650    -1.5390     0.2890 ca         1 2BG      -0.072000
      4 CAB         -3.0800    -0.9140     0.0820 ca         1 2BG      -0.131000
      5 CAC         -3.1430     0.4460    -0.2440 ca         1 2BG      -0.119000
      6 CAE         -1.9920     1.2040    -0.3670 ca         1 2BG      -0.091000
      7 CAK         -0.7720     0.5720    -0.1550 ca         1 2BG      -0.051100
      8 SAH          0.8280     1.2270    -0.2300 ss         1 2BG      -0.113100
      9 CAI          1.4630    -0.3540     0.1740 cd         1 2BG       0.410200
     10 CAF          2.9390    -0.5480     0.3270 c3         1 2BG       0.123500
     11 NAA          3.6690    -0.0020    -0.8060 n8         1 2BG      -0.877800
     12 H1          -1.8110    -2.5910     0.5390 ha         1 2BG       0.149000
     13 H2          -3.9960    -1.4820     0.1730 ha         1 2BG       0.135000
     14 H3          -4.1050     0.9130    -0.4020 ha         1 2BG       0.133000
     15 H4          -2.0440     2.2550    -0.6170 ha         1 2BG       0.142000
     16 H5           3.2380    -0.1250     1.2960 h1         1 2BG       0.057700
     17 H6           3.1120    -1.6220     0.3860 h1         1 2BG       0.057700
     18 H7           3.7580     1.0020    -0.7120 hn         1 2BG       0.344300
     19 H8           4.6170    -0.3550    -0.7780 hn         1 2BG       0.344300
@<TRIPOS>BOND
     1     1     2 1   
     2     1     9 2   
     3     2     3 ar  
     4     2     7 ar  
     5     3     4 ar  
     6     3    12 1   
     7     4     5 ar  
     8     4    13 1   
     9     5     6 ar  
    10     5    14 1   
    11     6     7 ar  
    12     6    15 1   
    13     7     8 1   
    14     8     9 1   
    15     9    10 1   
    16    10    11 1   
    17    10    16 1   
    18    10    17 1   
    19    11    18 1   
    20    11    19 1   
@<TRIPOS>SUBSTRUCTURE
     1 2BG         1 TEMP              0 ****  ****    0 ROOT
