@<TRIPOS>MOLECULE
2BG
   19    20     1     0     0
SMALL
No Charge or Current Charge


@<TRIPOS>ATOM
      1 NAG          0.6150    -1.2820     0.2270 nc         1 2BG      -0.535100
      2 CAJ         -0.6720    -0.7660     0.0990 ca         1 2BG       0.094400
      3 CAD         -1.8260    -1.5650     0.0280 ca         1 2BG      -0.054000
      4 CAB         -3.0910    -0.9550    -0.1000 ca         1 2BG      -0.113000
      5 CAC         -3.1990     0.4500    -0.1570 ca         1 2BG      -0.101000
      6 CAE         -2.0420     1.2470    -0.0860 ca         1 2BG      -0.073000
      7 CAK         -0.7960     0.6120     0.0420 ca         1 2BG      -0.178000
      8 SAH          0.7560     1.4190     0.1470 ss         1 2BG       0.013800
      9 CAI          1.4450    -0.2220     0.2570 cd         1 2BG       0.410200
     10 CAF          2.9530    -0.4110     0.4110 c3         1 2BG       0.123500
     11 NAA          3.7230    -0.4810    -0.8760 n8         1 2BG      -0.988200
     12 H1          -1.7430    -2.6480     0.0720 ha         1 2BG       0.131000
     13 H2          -3.9860    -1.5710    -0.1550 ha         1 2BG       0.117000
     14 H3          -4.1760     0.9180    -0.2560 ha         1 2BG       0.115000
     15 H4          -2.1130     2.3320    -0.1280 ha         1 2BG       0.124000
     16 H5           3.3470     0.4210     1.0130 h1         1 2BG       0.057700
     17 H6           3.1330    -1.3360     0.9760 h1         1 2BG       0.057700
     18 H7           3.6480     0.4170    -1.3730 hn         1 2BG       0.399500
     19 H8           4.7280    -0.5580    -0.6690 hn         1 2BG       0.399500
@<TRIPOS>BOND
     1     1     2 1   
     2     1     9 2   
     3     2     3 ar  
     4     2     7 ar  
     5     3     4 ar  
     6     3    12 1   
     7     4     5 ar  
     8     4    13 1   
     9     5     6 ar  
    10     5    14 1   
    11     6     7 ar  
    12     6    15 1   
    13     7     8 1   
    14     8     9 1   
    15     9    10 1   
    16    10    11 1   
    17    10    16 1   
    18    10    17 1   
    19    11    18 1   
    20    11    19 1   
@<TRIPOS>SUBSTRUCTURE
     1 2BG         1 TEMP              0 ****  ****    0 ROOT
