@<TRIPOS>MOLECULE
2BI
   26    27     1     0     0
SMALL
abcg2


@<TRIPOS>ATOM
      1 C1          -0.3180    -0.8410    -0.4810 ca         1 2BI      -0.277500
      2 C2          -0.7060    -1.2460     0.7930 ca         1 2BI       0.208000
      3 C3          -1.8470    -0.7160     1.3670 ca         1 2BI      -0.117000
      4 C4          -2.6060     0.2100     0.6700 ca         1 2BI       0.170000
      5 C5          -2.2200     0.6170    -0.6040 ca         1 2BI       0.092000
      6 C6          -1.0730     0.0920    -1.1720 ca         1 2BI       0.024000
      7 S7           1.1190    -1.5060    -1.2900 sy         1 2BI       1.205600
      8 O8           1.0800    -2.9510    -1.2340 o          1 2BI      -0.513500
      9 O9           1.2450    -0.8300    -2.5620 o          1 2BI      -0.513500
     10 N10          2.3760    -1.0640    -0.3150 nu         1 2BI      -0.884000
     11 C11          2.7110     0.2400    -0.0160 cc         1 2BI       0.532900
     12 N12          2.0970     1.2550    -0.5550 nd         1 2BI      -0.415300
     13 O13          2.6900     2.3580    -0.0080 os         1 2BI      -0.056700
     14 C14          3.6480     1.9940     0.8460 cd         1 2BI       0.212300
     15 C15          3.7190     0.6410     0.8910 cc         1 2BI      -0.275000
     16 C16          4.3990     3.0640     1.5440 c3         1 2BI      -0.141400
     17 CL7          0.2110    -2.3740     1.7100 cl         1 2BI      -0.163000
     18 CL8         -4.0160     0.8480     1.4000 cl         1 2BI      -0.146000
     19 CL9         -3.1460     1.7660    -1.4770 cl         1 2BI      -0.147000
     20 H1          -2.1470    -1.0220     2.3590 ha         1 2BI       0.149000
     21 H2          -0.7750     0.4150    -2.1590 ha         1 2BI       0.170000
     22 H3           2.8120    -1.8080     0.2130 hn         1 2BI       0.529000
     23 H4           4.3790     0.0220     1.4740 ha         1 2BI       0.158000
     24 H5           4.1270     4.0480     1.1700 hc         1 2BI       0.066700
     25 H6           4.1960     3.0370     2.6140 hc         1 2BI       0.066700
     26 H7           5.4710     2.9280     1.4080 hc         1 2BI       0.066700
@<TRIPOS>BOND
     1     1     2 ar  
     2     1     6 ar  
     3     1     7 1   
     4     2     3 ar  
     5     2    17 1   
     6     3     4 ar  
     7     3    20 1   
     8     4     5 ar  
     9     4    18 1   
    10     5     6 ar  
    11     5    19 1   
    12     6    21 1   
    13     7     8 2   
    14     7     9 2   
    15     7    10 1   
    16    10    11 1   
    17    10    22 1   
    18    11    12 2   
    19    11    15 1   
    20    12    13 1   
    21    13    14 1   
    22    14    15 2   
    23    14    16 1   
    24    15    23 1   
    25    16    24 1   
    26    16    25 1   
    27    16    26 1   
@<TRIPOS>SUBSTRUCTURE
     1 2BI         1 TEMP              0 ****  ****    0 ROOT
