@<TRIPOS>MOLECULE
2BI
   26    27     1     0     0
SMALL
No Charge or Current Charge


@<TRIPOS>ATOM
      1 C1          -0.1770    -0.8490    -0.5320 ca         1 2BI      -0.277500
      2 C2          -0.3020    -0.9830     0.8690 ca         1 2BI       0.208000
      3 C3          -1.3470    -0.3300     1.5430 ca         1 2BI      -0.117000
      4 C4          -2.2690     0.4580     0.8380 ca         1 2BI       0.170000
      5 C5          -2.1480     0.6020    -0.5570 ca         1 2BI       0.092000
      6 C6          -1.1050    -0.0480    -1.2380 ca         1 2BI       0.024000
      7 S7           1.1510    -1.6450    -1.4450 sy         1 2BI       1.205600
      8 O8           1.2790    -3.0410    -1.0260 o          1 2BI      -0.513500
      9 O9           1.0990    -1.2650    -2.8590 o          1 2BI      -0.513500
     10 N10          2.5740    -0.9790    -0.8880 nu         1 2BI      -0.884000
     11 C11          2.6750     0.2840    -0.4200 cc         1 2BI       0.532900
     12 N12          2.0930     1.3280    -0.9680 nd         1 2BI      -0.415300
     13 O13          2.5150     2.4150    -0.1160 os         1 2BI      -0.056700
     14 C14          3.3280     1.9010     0.8640 cd         1 2BI       0.212300
     15 C15          3.4540     0.5630     0.7000 cc         1 2BI      -0.275000
     16 C16          3.9150     2.8200     1.8960 c3         1 2BI      -0.141400
     17 Cl7          0.8320    -1.9200     1.8420 cl         1 2BI      -0.163000
     18 Cl8         -3.5630     1.2610     1.7270 cl         1 2BI      -0.146000
     19 Cl9         -3.2870     1.5920    -1.4730 cl         1 2BI      -0.147000
     20 H1          -1.4390    -0.4320     2.6200 ha         1 2BI       0.149000
     21 H2          -1.0270     0.0810    -2.3160 ha         1 2BI       0.170000
     22 H3           2.9430    -1.6760    -0.2620 hn         1 2BI       0.529000
     23 H4           4.0240    -0.1380     1.2960 ha         1 2BI       0.158000
     24 H5           4.5360     3.5900     1.4240 hc         1 2BI       0.066700
     25 H6           3.1250     3.3220     2.4650 hc         1 2BI       0.066700
     26 H7           4.5430     2.2670     2.6040 hc         1 2BI       0.066700
@<TRIPOS>BOND
     1     1     2 ar  
     2     1     6 ar  
     3     1     7 1   
     4     2     3 ar  
     5     2    17 1   
     6     3     4 ar  
     7     3    20 1   
     8     4     5 ar  
     9     4    18 1   
    10     5     6 ar  
    11     5    19 1   
    12     6    21 1   
    13     7     8 2   
    14     7     9 2   
    15     7    10 1   
    16    10    11 1   
    17    10    22 1   
    18    11    12 2   
    19    11    15 1   
    20    12    13 1   
    21    13    14 1   
    22    14    15 2   
    23    14    16 1   
    24    15    23 1   
    25    16    24 1   
    26    16    25 1   
    27    16    26 1   
@<TRIPOS>SUBSTRUCTURE
     1 2BI         1 TEMP              0 ****  ****    0 ROOT
