@<TRIPOS>MOLECULE
2BJ
   47    49     1     0     0
SMALL
abcg2


@<TRIPOS>ATOM
      1 C1           3.4160    -0.3430    -0.2470 ca         1 2BJ      -0.147600
      2 N1           6.2310     1.5090    -1.8190 no         1 2BJ       0.701200
      3 O1           5.6010     2.2020    -2.5820 o          1 2BJ      -0.427500
      4 C2           4.0910    -1.1740     0.6470 ca         1 2BJ      -0.066600
      5 N2           1.2700     0.3620     0.5350 ns         1 2BJ      -0.124000
      6 O2           7.4350     1.5340    -1.7230 o          1 2BJ      -0.427500
      7 C3           5.4780    -1.0910     0.7220 ca         1 2BJ      -0.106000
      8 O3           2.1450    -2.3630     1.1940 o          1 2BJ      -0.688500
      9 C4           6.1940    -0.2200    -0.0770 ca         1 2BJ      -0.062000
     10 O4           3.9830    -2.7470     2.4040 o          1 2BJ      -0.688500
     11 C5           5.4970     0.5870    -0.9650 ca         1 2BJ      -0.212200
     12 O5           1.4050    -0.8250    -1.4120 o          1 2BJ      -0.579100
     13 C6           4.1160     0.5360    -1.0600 ca         1 2BJ      -0.040000
     14 O6          -3.2640     0.0420    -0.9420 os         1 2BJ      -0.255200
     15 C7           3.3370    -2.1890     1.5030 c          1 2BJ       0.704600
     16 C8           1.9210    -0.3510    -0.4170 c          1 2BJ       0.674700
     17 C9          -0.0980     0.5660     0.7050 ca         1 2BJ       0.048000
     18 C10         -0.4940     1.2060     1.8850 ca         1 2BJ      -0.203000
     19 C11         -1.8330     1.4540     2.1150 ca         1 2BJ      -0.056000
     20 C12         -2.8090     1.0820     1.1980 ca         1 2BJ      -0.232000
     21 C13         -4.6120     0.2610    -0.7790 ca         1 2BJ       0.113100
     22 C14         -2.4040     0.4500     0.0300 ca         1 2BJ       0.155100
     23 C15         -1.0600     0.1870    -0.2260 ca         1 2BJ      -0.168000
     24 C16         -5.1850     1.4230    -1.2630 ca         1 2BJ      -0.120000
     25 C17         -6.5560     1.5970    -1.1260 ca         1 2BJ      -0.105000
     26 C18         -7.3580     0.6410    -0.5130 ca         1 2BJ      -0.087300
     27 C19         -8.8350     0.8630    -0.3730 c3         1 2BJ      -0.041800
     28 C20         -6.7630    -0.5330    -0.0260 ca         1 2BJ      -0.070300
     29 C21         -7.5910    -1.5920     0.6370 c3         1 2BJ      -0.044800
     30 C22         -5.3900    -0.7080    -0.1640 ca         1 2BJ      -0.113000
     31 HN2          1.8400     0.6920     1.2990 hn         1 2BJ       0.156000
     32 H3           6.0070    -1.7280     1.4160 ha         1 2BJ       0.147000
     33 H4           7.2710    -0.1770    -0.0050 ha         1 2BJ       0.132000
     34 H6           3.5880     1.1750    -1.7550 ha         1 2BJ       0.141000
     35 H10          0.2470     1.5030     2.6170 ha         1 2BJ       0.113000
     36 H11         -2.1310     1.9480     3.0300 ha         1 2BJ       0.100000
     37 H12         -3.8500     1.2860     1.4040 ha         1 2BJ       0.115000
     38 H15         -0.7870    -0.3030    -1.1470 ha         1 2BJ       0.165000
     39 H16         -4.5780     2.1790    -1.7440 ha         1 2BJ       0.129000
     40 H17         -7.0100     2.5030    -1.5080 ha         1 2BJ       0.107000
     41 H19         -9.4120     0.0560    -0.8290 hc         1 2BJ       0.037033
     42 H19A        -9.1360     0.9090     0.6770 hc         1 2BJ       0.037033
     43 H19B        -9.1400     1.7960    -0.8450 hc         1 2BJ       0.037033
     44 H21         -8.3450    -1.9960    -0.0420 hc         1 2BJ       0.040033
     45 H21A        -6.9760    -2.4220     0.9790 hc         1 2BJ       0.040033
     46 H21B        -8.1280    -1.1970     1.5020 hc         1 2BJ       0.040033
     47 H22         -4.9210    -1.6100     0.2110 ha         1 2BJ       0.133000
@<TRIPOS>BOND
     1     1     4 ar  
     2     1    13 ar  
     3     1    16 1   
     4     2     3 1   
     5     2     6 1   
     6     2    11 1   
     7     4     7 ar  
     8     4    15 1   
     9     5    16 1   
    10     5    17 1   
    11     5    31 1   
    12     7     9 ar  
    13     7    32 1   
    14     8    15 1   
    15     9    11 ar  
    16     9    33 1   
    17    10    15 1   
    18    11    13 ar  
    19    12    16 2   
    20    13    34 1   
    21    14    21 1   
    22    14    22 1   
    23    17    18 ar  
    24    17    23 ar  
    25    18    19 ar  
    26    18    35 1   
    27    19    20 ar  
    28    19    36 1   
    29    20    22 ar  
    30    20    37 1   
    31    21    24 ar  
    32    21    30 ar  
    33    22    23 ar  
    34    23    38 1   
    35    24    25 ar  
    36    24    39 1   
    37    25    26 ar  
    38    25    40 1   
    39    26    27 1   
    40    26    28 ar  
    41    27    41 1   
    42    27    42 1   
    43    27    43 1   
    44    28    29 1   
    45    28    30 ar  
    46    29    44 1   
    47    29    45 1   
    48    29    46 1   
    49    30    47 1   
@<TRIPOS>SUBSTRUCTURE
     1 2BJ         1 TEMP              0 ****  ****    0 ROOT
