@<TRIPOS>MOLECULE
2BJ
   47    49     1     0     0
SMALL
No Charge or Current Charge


@<TRIPOS>ATOM
      1 C1           3.3360    -0.1550    -0.3790 ca         1 2BJ      -0.147600
      2 N1           6.6290     0.6500    -2.1800 no         1 2BJ       0.701200
      3 O1           6.1960     1.3890    -3.0740 o          1 2BJ      -0.427500
      4 C2           3.7940    -1.0380     0.6440 ca         1 2BJ      -0.066600
      5 N2           1.1560     0.4120     0.6370 ns         1 2BJ      -0.124000
      6 O2           7.8270     0.3630    -2.0520 o          1 2BJ      -0.427500
      7 C3           5.1720    -1.3220     0.7420 ca         1 2BJ      -0.106000
      8 O3           1.9550    -2.4220     1.1140 o          1 2BJ      -0.688500
      9 C4           6.0940    -0.7730    -0.1610 ca         1 2BJ      -0.062000
     10 O4           3.0660    -1.6500     2.7940 o          1 2BJ      -0.688500
     11 C5           5.6510     0.0710    -1.2010 ca         1 2BJ      -0.212200
     12 O5           1.4200     0.4950    -1.6490 o          1 2BJ      -0.579100
     13 C6           4.2730     0.3680    -1.3010 ca         1 2BJ      -0.040000
     14 O6          -3.3790     1.5560    -0.8030 os         1 2BJ      -0.255200
     15 C7           2.8610    -1.7580     1.5940 c          1 2BJ       0.704600
     16 C8           1.8860     0.2710    -0.5360 c          1 2BJ       0.674700
     17 C9          -0.1940     0.7750     0.8900 ca         1 2BJ       0.048000
     18 C10         -0.5840     0.9180     2.2350 ca         1 2BJ      -0.203000
     19 C11         -1.8990     1.2810     2.5710 ca         1 2BJ      -0.056000
     20 C12         -2.8430     1.4970     1.5570 ca         1 2BJ      -0.232000
     21 C13         -4.6970     1.1630    -0.7270 ca         1 2BJ       0.113100
     22 C14         -2.4730     1.3400     0.2100 ca         1 2BJ       0.155100
     23 C15         -1.1550     0.9920    -0.1230 ca         1 2BJ      -0.168000
     24 C16         -5.6810     1.9750    -1.3060 ca         1 2BJ      -0.120000
     25 C17         -7.0310     1.5900    -1.2540 ca         1 2BJ      -0.105000
     26 C18         -7.4080     0.3840    -0.6290 ca         1 2BJ      -0.087300
     27 C19         -8.8830    -0.0060    -0.5880 c3         1 2BJ      -0.041800
     28 C20         -6.4140    -0.4450    -0.0550 ca         1 2BJ      -0.070300
     29 C21         -6.7780    -1.7630     0.6240 c3         1 2BJ      -0.044800
     30 C22         -5.0620    -0.0500    -0.1130 ca         1 2BJ      -0.113000
     31 HN2          1.6870     0.2290     1.4770 hn         1 2BJ       0.156000
     32 H3           5.5290    -1.9950     1.5200 ha         1 2BJ       0.147000
     33 H4           7.1480    -1.0220    -0.0540 ha         1 2BJ       0.132000
     34 H6           3.9210     1.0320    -2.0900 ha         1 2BJ       0.141000
     35 H10          0.1400     0.7530     3.0310 ha         1 2BJ       0.113000
     36 H11         -2.1830     1.3960     3.6150 ha         1 2BJ       0.100000
     37 H12         -3.8580     1.7870     1.8190 ha         1 2BJ       0.115000
     38 H15         -0.9080     0.8870    -1.1730 ha         1 2BJ       0.165000
     39 H16         -5.3980     2.9060    -1.7920 ha         1 2BJ       0.129000
     40 H17         -7.7850     2.2330    -1.7030 ha         1 2BJ       0.107000
     41 H19         -9.0540    -0.9590    -1.1020 hc         1 2BJ       0.037033
     42 H19A        -9.2360    -0.1100     0.4450 hc         1 2BJ       0.037033
     43 H19B        -9.5170     0.7450    -1.0750 hc         1 2BJ       0.037033
     44 H21         -7.2700    -2.4460    -0.0780 hc         1 2BJ       0.040033
     45 H21A        -5.8940    -2.2780     1.0150 hc         1 2BJ       0.040033
     46 H21B        -7.4590    -1.5970     1.4680 hc         1 2BJ       0.040033
     47 H22         -4.2930    -0.6880     0.3170 ha         1 2BJ       0.133000
@<TRIPOS>BOND
     1     1     4 ar  
     2     1    13 ar  
     3     1    16 1   
     4     2     3 1   
     5     2     6 1   
     6     2    11 1   
     7     4     7 ar  
     8     4    15 1   
     9     5    16 1   
    10     5    17 1   
    11     5    31 1   
    12     7     9 ar  
    13     7    32 1   
    14     8    15 1   
    15     9    11 ar  
    16     9    33 1   
    17    10    15 1   
    18    11    13 ar  
    19    12    16 2   
    20    13    34 1   
    21    14    21 1   
    22    14    22 1   
    23    17    18 ar  
    24    17    23 ar  
    25    18    19 ar  
    26    18    35 1   
    27    19    20 ar  
    28    19    36 1   
    29    20    22 ar  
    30    20    37 1   
    31    21    24 ar  
    32    21    30 ar  
    33    22    23 ar  
    34    23    38 1   
    35    24    25 ar  
    36    24    39 1   
    37    25    26 ar  
    38    25    40 1   
    39    26    27 1   
    40    26    28 ar  
    41    27    41 1   
    42    27    42 1   
    43    27    43 1   
    44    28    29 1   
    45    28    30 ar  
    46    29    44 1   
    47    29    45 1   
    48    29    46 1   
    49    30    47 1   
@<TRIPOS>SUBSTRUCTURE
     1 2BJ         1 TEMP              0 ****  ****    0 ROOT
