@<TRIPOS>MOLECULE
2BL
   36    36     1     0     0
SMALL
No Charge or Current Charge


@<TRIPOS>ATOM
      1 C1          -3.5760    -0.0800    -0.8700 c          1 2BL       0.736000
      2 C2          -2.3580    -0.4880    -0.0040 c3         1 2BL      -0.172700
      3 C3          -0.9970    -0.1400    -0.6800 c3         1 2BL       0.087500
      4 C4          -0.8490    -0.8760    -2.0780 c          1 2BL       0.709000
      5 C5          -2.4610     0.0420     1.4570 c3         1 2BL      -0.050400
      6 C6          -3.7030    -0.4630     2.2190 c3         1 2BL      -0.074100
      7 C7           1.8450     0.9380    -0.3180 ca         1 2BL      -0.255500
      8 C8           2.5760    -0.0400    -1.0200 ca         1 2BL       0.015000
      9 C9           2.0290     1.0860     1.0700 ca         1 2BL       0.015000
     10 C10          3.4870    -0.8620    -0.3340 ca         1 2BL      -0.133500
     11 C11          2.9410     0.2600     1.7510 ca         1 2BL      -0.133500
     12 C12          3.6740    -0.7180     1.0540 ca         1 2BL      -0.054300
     13 C13          4.6620    -1.6080     1.7920 c3         1 2BL      -0.036800
     14 O1          -1.4290    -0.4150    -3.0540 o          1 2BL      -0.729500
     15 O2          -0.1240    -1.8600    -2.1430 o          1 2BL      -0.729500
     16 O3           0.6970     3.3240    -0.5680 o          1 2BL      -0.603500
     17 O4           0.7630     1.7970    -2.6250 o          1 2BL      -0.603500
     18 N1          -0.7950     1.3460    -0.7100 n7         1 2BL      -0.835300
     19 HA          -2.3800    -1.5820     0.0690 hc         1 2BL       0.052700
     20 HB          -0.2290    -0.5800    -0.0300 h1         1 2BL       0.027700
     21 HD1         -1.5660    -0.2640     2.0120 hc         1 2BL       0.019200
     22 HD2         -2.4730     1.1380     1.4580 hc         1 2BL       0.019200
     23 HE1         -3.6940    -0.0890     3.2500 hc         1 2BL       0.009367
     24 HE2         -4.6270    -0.1160     1.7410 hc         1 2BL       0.009367
     25 HE3         -3.7190    -1.5590     2.2530 hc         1 2BL       0.009367
     26 HG1          2.4410    -0.1710    -2.0920 ha         1 2BL       0.127500
     27 HG2          1.4630     1.8330     1.6240 ha         1 2BL       0.127500
     28 HH1          4.0480    -1.6140    -0.8840 ha         1 2BL       0.088000
     29 HH2          3.0750     0.3820     2.8220 ha         1 2BL       0.088000
     30 HJ1          5.6580    -1.1530     1.8100 hc         1 2BL       0.024367
     31 HJ2          4.3500    -1.7760     2.8300 hc         1 2BL       0.024367
     32 HJ3          4.7500    -2.5910     1.3130 hc         1 2BL       0.024367
     33 O5          -3.7780     1.1050    -1.1010 o          1 2BL      -0.750000
     34 O6          -4.3190    -0.9690    -1.2650 o          1 2BL      -0.750000
     35 H16         -1.4070     1.7290    -1.4290 hn         1 2BL       0.549000
     36 S1           0.6680     1.9920    -1.1780 sy         1 2BL       1.149600
@<TRIPOS>BOND
     1     1     2 1   
     2     1    33 1   
     3     1    34 1   
     4     2     3 1   
     5     2     5 1   
     6     2    19 1   
     7     3     4 1   
     8     3    18 1   
     9     3    20 1   
    10     4    14 1   
    11     4    15 1   
    12     5     6 1   
    13     5    21 1   
    14     5    22 1   
    15     6    23 1   
    16     6    24 1   
    17     6    25 1   
    18     7     8 ar  
    19     7     9 ar  
    20     7    36 1   
    21     8    10 ar  
    22     8    26 1   
    23     9    11 ar  
    24     9    27 1   
    25    10    12 ar  
    26    10    28 1   
    27    11    12 ar  
    28    11    29 1   
    29    12    13 1   
    30    13    30 1   
    31    13    31 1   
    32    13    32 1   
    33    16    36 2   
    34    17    36 2   
    35    18    35 1   
    36    18    36 1   
@<TRIPOS>SUBSTRUCTURE
     1 2BL         1 TEMP              0 ****  ****    0 ROOT
