@<TRIPOS>MOLECULE
2BL
   36    36     1     0     0
SMALL
abcg2


@<TRIPOS>ATOM
      1 C1          -2.9430    -0.9890    -0.7600 c          1 2BL       0.736000
      2 C2          -2.6550    -0.3730     0.6250 c3         1 2BL      -0.172700
      3 C3          -1.1550    -0.0680     0.7890 c3         1 2BL       0.087500
      4 C4          -0.3590    -1.3860     0.6240 c          1 2BL       0.709000
      5 C5          -3.5190     0.8610     0.8820 c3         1 2BL      -0.050400
      6 C6          -5.0100     0.5530     0.8980 c3         1 2BL      -0.074100
      7 C7           1.9800     0.8250     0.0210 ca         1 2BL      -0.255500
      8 C8           2.5280     0.4520    -1.1990 ca         1 2BL       0.015000
      9 C9           2.5210     0.3600     1.2090 ca         1 2BL       0.015000
     10 C10          3.6280    -0.3840    -1.2210 ca         1 2BL      -0.133500
     11 C11          3.6220    -0.4820     1.1700 ca         1 2BL      -0.133500
     12 C12          4.1930    -0.8660    -0.0400 ca         1 2BL      -0.054300
     13 C13          5.4020    -1.7530    -0.0750 c3         1 2BL      -0.036800
     14 O1           0.1400    -1.6150    -0.4890 o          1 2BL      -0.729500
     15 O2          -0.3460    -2.1260     1.6290 o          1 2BL      -0.729500
     16 O3           0.4960     2.4580     1.3840 o          1 2BL      -0.603500
     17 O4           0.6300     2.7560    -1.1090 o          1 2BL      -0.603500
     18 N1          -0.7830     0.9780    -0.1520 n7         1 2BL      -0.835300
     19 HA          -2.8900    -1.1170     1.3900 hc         1 2BL       0.052700
     20 HB          -1.0080     0.3210     1.8000 h1         1 2BL       0.027700
     21 HD1         -3.2300     1.2940     1.8450 hc         1 2BL       0.019200
     22 HD2         -3.3080     1.6230     0.1290 hc         1 2BL       0.019200
     23 HE1         -5.5920     1.4400     1.1530 hc         1 2BL       0.009367
     24 HE2         -5.3620     0.2030    -0.0740 hc         1 2BL       0.009367
     25 HE3         -5.2490    -0.2200     1.6310 hc         1 2BL       0.009367
     26 HG1          2.1060     0.8080    -2.1300 ha         1 2BL       0.127500
     27 HG2          2.1010     0.6490     2.1620 ha         1 2BL       0.127500
     28 HH1          4.0550    -0.6710    -2.1740 ha         1 2BL       0.088000
     29 HH2          4.0430    -0.8430     2.1010 ha         1 2BL       0.088000
     30 HJ1          6.3180    -1.1580    -0.0700 hc         1 2BL       0.024367
     31 HJ2          5.4400    -2.4130     0.7910 hc         1 2BL       0.024367
     32 HJ3          5.4200    -2.3670    -0.9750 hc         1 2BL       0.024367
     33 O5          -2.7080    -0.2620    -1.7560 o          1 2BL      -0.750000
     34 O6          -3.3930    -2.1480    -0.7980 o          1 2BL      -0.750000
     35 H16         -1.0220     0.7450    -1.1140 hn         1 2BL       0.549000
     36 S1           0.5530     1.8720     0.0500 sy         1 2BL       1.149600
@<TRIPOS>BOND
     1     1     2 1   
     2     1    33 1   
     3     1    34 1   
     4     2     3 1   
     5     2     5 1   
     6     2    19 1   
     7     3     4 1   
     8     3    18 1   
     9     3    20 1   
    10     4    14 1   
    11     4    15 1   
    12     5     6 1   
    13     5    21 1   
    14     5    22 1   
    15     6    23 1   
    16     6    24 1   
    17     6    25 1   
    18     7     8 ar  
    19     7     9 ar  
    20     7    36 1   
    21     8    10 ar  
    22     8    26 1   
    23     9    11 ar  
    24     9    27 1   
    25    10    12 ar  
    26    10    28 1   
    27    11    12 ar  
    28    11    29 1   
    29    12    13 1   
    30    13    30 1   
    31    13    31 1   
    32    13    32 1   
    33    16    36 2   
    34    17    36 2   
    35    18    35 1   
    36    18    36 1   
@<TRIPOS>SUBSTRUCTURE
     1 2BL         1 TEMP              0 ****  ****    0 ROOT
