@<TRIPOS>MOLECULE
2BM
    5     4     1     0     0
SMALL
bcc


@<TRIPOS>ATOM
      1 C           -1.0320    -0.0020     0.0210 c3         1 2BM       0.039400
      2 BR1          0.0550     0.0090    -1.5800 br         1 2BM      -0.120400
      3 BR2          0.0530    -0.0440     1.6210 br         1 2BM      -0.120400
      4 H1          -1.6360     0.9020     0.0350 h2         1 2BM       0.100700
      5 H2          -1.6620    -0.8890     0.0050 h2         1 2BM       0.100700
@<TRIPOS>BOND
     1     1     2 1   
     2     1     3 1   
     3     1     4 1   
     4     1     5 1   
@<TRIPOS>SUBSTRUCTURE
     1 2BM         1 TEMP              0 ****  ****    0 ROOT
