@<TRIPOS>MOLECULE
2BM
    5     4     1     0     0
SMALL
No Charge or Current Charge


@<TRIPOS>ATOM
      1 C           -1.0510    -0.0020     0.0200 c3         1 2BM       0.204600
      2 Br1          0.0870     0.0090    -1.6120 br         1 2BM      -0.203000
      3 Br2          0.0860    -0.0450     1.6540 br         1 2BM      -0.203000
      4 H1          -1.6590     0.9090     0.0350 h2         1 2BM       0.100700
      5 H2          -1.6850    -0.8950     0.0050 h2         1 2BM       0.100700
@<TRIPOS>BOND
     1     1     2 1   
     2     1     3 1   
     3     1     4 1   
     4     1     5 1   
@<TRIPOS>SUBSTRUCTURE
     1 2BM         1 TEMP              0 ****  ****    0 ROOT
