@<TRIPOS>MOLECULE
2BN
   27    28     1     0     0
SMALL
No Charge or Current Charge


@<TRIPOS>ATOM
      1 C2          -0.8430    -0.0800    -0.2840 c5         1 2BN       0.173200
      2 N3          -1.1730     1.0730     0.6010 n7         1 2BN      -0.855400
      3 C4           0.0240     1.2400     1.4740 c5         1 2BN       0.151800
      4 C5           0.9740     0.0830     1.0220 c5         1 2BN      -0.087700
      5 C6           0.2940    -1.2230     1.5630 c5         1 2BN      -0.080400
      6 C7          -0.9700    -1.3400     0.6450 c5         1 2BN      -0.110400
      7 C8           0.7070     0.0290    -0.5150 c5         1 2BN      -0.043000
      8 C9           1.1670     1.3050    -1.2970 c3         1 2BN      -0.074100
      9 C10          1.3820    -1.1720    -1.2610 c3         1 2BN      -0.074100
     10 C11         -1.7390    -0.1210    -1.5430 c3         1 2BN      -0.064100
     11 HN3         -1.9840     0.8200     1.1740 hn         1 2BN       0.406000
     12 HC41        -0.2360     1.1770     2.5410 h1         1 2BN       0.041700
     13 HC42         0.4880     2.2220     1.3100 h1         1 2BN       0.041700
     14 HC5          2.0200     0.2110     1.3220 hc         1 2BN       0.069700
     15 HC61         0.9480    -2.0960     1.4640 hc         1 2BN       0.044200
     16 HC62         0.0320    -1.1510     2.6250 hc         1 2BN       0.044200
     17 HC71        -0.9630    -2.2740     0.0710 hc         1 2BN       0.045200
     18 HC72        -1.9020    -1.3430     1.2220 hc         1 2BN       0.045200
     19 HC91         2.2520     1.4410    -1.2200 hc         1 2BN       0.035367
     20 HC92         0.9220     1.2250    -2.3630 hc         1 2BN       0.035367
     21 HC93         0.7010     2.2300    -0.9420 hc         1 2BN       0.035367
     22 H101         2.4750    -1.0740    -1.2440 hc         1 2BN       0.035367
     23 H102         1.1480    -2.1530    -0.8370 hc         1 2BN       0.035367
     24 H103         1.0750    -1.2040    -2.3130 hc         1 2BN       0.035367
     25 H111        -2.7970    -0.2160    -1.2710 hc         1 2BN       0.038700
     26 H112        -1.6280     0.7900    -2.1410 hc         1 2BN       0.038700
     27 H113        -1.4830    -0.9740    -2.1820 hc         1 2BN       0.038700
@<TRIPOS>BOND
     1     1     2 1   
     2     1     6 1   
     3     1     7 1   
     4     1    10 1   
     5     2     3 1   
     6     2    11 1   
     7     3     4 1   
     8     3    12 1   
     9     3    13 1   
    10     4     5 1   
    11     4     7 1   
    12     4    14 1   
    13     5     6 1   
    14     5    15 1   
    15     5    16 1   
    16     6    17 1   
    17     6    18 1   
    18     7     8 1   
    19     7     9 1   
    20     8    19 1   
    21     8    20 1   
    22     8    21 1   
    23     9    22 1   
    24     9    23 1   
    25     9    24 1   
    26    10    25 1   
    27    10    26 1   
    28    10    27 1   
@<TRIPOS>SUBSTRUCTURE
     1 2BN         1 TEMP              0 ****  ****    0 ROOT
