@<TRIPOS>MOLECULE
2BN
   27    28     1     0     0
SMALL
abcg2


@<TRIPOS>ATOM
      1 C2          -0.8340    -0.1030    -0.2890 c5         1 2BN       0.173200
      2 N3          -1.1010     1.0940     0.5250 n7         1 2BN      -0.855400
      3 C4           0.0460     1.2240     1.4450 c5         1 2BN       0.151800
      4 C5           0.9670     0.0800     1.0160 c5         1 2BN      -0.087700
      5 C6           0.3200    -1.2190     1.5190 c5         1 2BN      -0.080400
      6 C7          -0.9340    -1.3450     0.6190 c5         1 2BN      -0.110400
      7 C8           0.6950     0.0290    -0.5030 c5         1 2BN      -0.043000
      8 C9           1.1150     1.2940    -1.2490 c3         1 2BN      -0.074100
      9 C10          1.3390    -1.1560    -1.2190 c3         1 2BN      -0.074100
     10 C11         -1.7150    -0.1500    -1.5150 c3         1 2BN      -0.064100
     11 HN3         -1.9670     0.9850     1.0360 hn         1 2BN       0.406000
     12 HC41        -0.2470     1.1310     2.4950 h1         1 2BN       0.041700
     13 HC42         0.5270     2.2020     1.3380 h1         1 2BN       0.041700
     14 HC5          2.0100     0.2120     1.3090 hc         1 2BN       0.069700
     15 HC61         0.9890    -2.0730     1.4010 hc         1 2BN       0.044200
     16 HC62         0.0720    -1.1580     2.5800 hc         1 2BN       0.044200
     17 HC71        -0.9340    -2.2760     0.0470 hc         1 2BN       0.045200
     18 HC72        -1.8680    -1.3310     1.1870 hc         1 2BN       0.045200
     19 HC91         2.1980     1.4260    -1.1860 hc         1 2BN       0.035367
     20 HC92         0.8640     1.2150    -2.3080 hc         1 2BN       0.035367
     21 HC93         0.6450     2.2000    -0.8710 hc         1 2BN       0.035367
     22 H101         2.4270    -1.0960    -1.1420 hc         1 2BN       0.035367
     23 H102         1.0370    -2.1300    -0.8370 hc         1 2BN       0.035367
     24 H103         1.0910    -1.1370    -2.2820 hc         1 2BN       0.035367
     25 H111        -2.7690    -0.2190    -1.2350 hc         1 2BN       0.038700
     26 H112        -1.5960     0.7450    -2.1280 hc         1 2BN       0.038700
     27 H113        -1.4880    -1.0190    -2.1350 hc         1 2BN       0.038700
@<TRIPOS>BOND
     1     1     2 1   
     2     1     6 1   
     3     1     7 1   
     4     1    10 1   
     5     2     3 1   
     6     2    11 1   
     7     3     4 1   
     8     3    12 1   
     9     3    13 1   
    10     4     5 1   
    11     4     7 1   
    12     4    14 1   
    13     5     6 1   
    14     5    15 1   
    15     5    16 1   
    16     6    17 1   
    17     6    18 1   
    18     7     8 1   
    19     7     9 1   
    20     8    19 1   
    21     8    20 1   
    22     8    21 1   
    23     9    22 1   
    24     9    23 1   
    25     9    24 1   
    26    10    25 1   
    27    10    26 1   
    28    10    27 1   
@<TRIPOS>SUBSTRUCTURE
     1 2BN         1 TEMP              0 ****  ****    0 ROOT
