@<TRIPOS>MOLECULE
2BP
   15    16     1     0     0
SMALL
abcg2


@<TRIPOS>ATOM
      1 N9           1.6630     1.2600    -0.0190 na         1 2BP      -0.428300
      2 C8           2.6230     0.2860    -0.0580 cc         1 2BP       0.407700
      3 N7           2.1430    -0.9190    -0.0540 nd         1 2BP      -0.533100
      4 C5           0.7780    -0.7390    -0.0100 ca         1 2BP      -0.089600
      5 C6          -0.3090    -1.5970     0.0080 ca         1 2BP       0.217900
      6 N1          -1.5400    -1.1180     0.0490 nb         1 2BP      -0.255000
      7 C2          -1.7120     0.2190     0.0720 ca         1 2BP       0.384900
      8 N2          -2.9910     0.6560     0.1590 nv         1 2BP      -1.048900
      9 N3          -0.7500     1.1430     0.0520 nb         1 2BP      -0.255000
     10 C4           0.4630     0.6260     0.0120 ca         1 2BP       0.146500
     11 H8           3.6720     0.5420    -0.0870 h5         1 2BP       0.066800
     12 H6          -0.1940    -2.6760    -0.0110 h4         1 2BP       0.037100
     13 HN2         -3.7230     0.0070    -0.0720 hn         1 2BP       0.490000
     14 HN2A        -3.1740     1.6220    -0.0490 hn         1 2BP       0.490000
     15 HN9          1.8240     2.2550    -0.0190 hn         1 2BP       0.368000
@<TRIPOS>BOND
     1     1     2 1   
     2     1    10 1   
     3     1    15 1   
     4     2     3 2   
     5     2    11 1   
     6     3     4 1   
     7     4     5 ar  
     8     4    10 ar  
     9     5     6 ar  
    10     5    12 1   
    11     6     7 ar  
    12     7     8 1   
    13     7     9 ar  
    14     8    13 1   
    15     8    14 1   
    16     9    10 ar  
@<TRIPOS>SUBSTRUCTURE
     1 2BP         1 TEMP              0 ****  ****    0 ROOT
