@<TRIPOS>MOLECULE
2BP
   15    16     1     0     0
SMALL
No Charge or Current Charge


@<TRIPOS>ATOM
      1 N9           1.6920     1.2690    -0.0170 na         1 2BP      -0.428300
      2 C8           2.6800     0.2880    -0.0650 cc         1 2BP       0.407700
      3 N7           2.1290    -0.9420    -0.0630 nd         1 2BP      -0.533100
      4 C5           0.7600    -0.6850    -0.0130 ca         1 2BP      -0.089600
      5 C6          -0.3140    -1.5980     0.0110 ca         1 2BP       0.217900
      6 N1          -1.5880    -1.1440     0.0610 nb         1 2BP      -0.255000
      7 C2          -1.7400     0.1950     0.0860 ca         1 2BP       0.384900
      8 N2          -3.0170     0.6490     0.1340 nv         1 2BP      -1.048900
      9 N3          -0.7760     1.1360     0.0660 nb         1 2BP      -0.255000
     10 C4           0.4790     0.6570     0.0160 ca         1 2BP       0.146500
     11 H8           3.7380     0.5220    -0.0970 h5         1 2BP       0.066800
     12 H6          -0.1610    -2.6760    -0.0100 h4         1 2BP       0.037100
     13 HN2         -3.7720    -0.0030    -0.0660 hn         1 2BP       0.490000
     14 HN2A        -3.1940     1.6320    -0.0600 hn         1 2BP       0.490000
     15 HN9          1.8570     2.2660    -0.0080 hn         1 2BP       0.368000
@<TRIPOS>BOND
     1     1     2 1   
     2     1    10 1   
     3     1    15 1   
     4     2     3 2   
     5     2    11 1   
     6     3     4 1   
     7     4     5 ar  
     8     4    10 ar  
     9     5     6 ar  
    10     5    12 1   
    11     6     7 ar  
    12     7     8 1   
    13     7     9 ar  
    14     8    13 1   
    15     8    14 1   
    16     9    10 ar  
@<TRIPOS>SUBSTRUCTURE
     1 2BP         1 TEMP              0 ****  ****    0 ROOT
