@<TRIPOS>MOLECULE
2BQ
   27    27     1     0     0
SMALL
bcc


@<TRIPOS>ATOM
      1 CL          -5.2370     0.8390    -0.0410 cl         1 2BQ      -0.156400
      2 C3          -3.5530     0.4200    -0.0580 ca         1 2BQ       0.014400
      3 C2          -2.7400     0.8080     0.9970 ca         1 2BQ      -0.135500
      4 C4          -3.0340    -0.2930    -1.1240 ca         1 2BQ      -0.135500
      5 C5          -1.6830    -0.6220    -1.1310 ca         1 2BQ      -0.103500
      6 C6          -0.8460    -0.2510    -0.0850 ca         1 2BQ      -0.019300
      7 C1          -1.3970     0.4700     0.9720 ca         1 2BQ      -0.103500
      8 C7           0.6400    -0.5760    -0.1020 c3         1 2BQ       0.254100
      9 O4           0.8850    -1.4150    -1.2060 oh         1 2BQ      -0.646800
     10 C8           1.0430    -1.3050     1.1890 c3         1 2BQ       0.119800
     11 N            0.2110    -2.4790     1.3820 n8         1 2BQ      -0.885800
     12 C9           1.3830     0.7630    -0.2810 c3         1 2BQ      -0.282600
     13 S            3.1890     0.6640    -0.3840 s6         1 2BQ       1.201800
     14 O1           3.6110     1.9170    -1.0310 o          1 2BQ      -0.687867
     15 O2           3.6970     0.5210     0.9910 o          1 2BQ      -0.687867
     16 O3           3.4570    -0.5360    -1.2260 o          1 2BQ      -0.687867
     17 H1          -3.1460     1.3650     1.8300 ha         1 2BQ       0.130500
     18 H2          -3.6680    -0.5950    -1.9460 ha         1 2BQ       0.130500
     19 H3          -1.2940    -1.1740    -1.9740 ha         1 2BQ       0.143000
     20 H4          -0.7820     0.7860     1.8060 ha         1 2BQ       0.143000
     21 H5           1.8450    -1.3710    -1.3730 ho         1 2BQ       0.465000
     22 H6           2.1130    -1.5350     1.1320 h1         1 2BQ       0.049200
     23 H7           0.9210    -0.6380     2.0450 h1         1 2BQ       0.049200
     24 H8           0.3330    -3.0980     0.5900 hn         1 2BQ       0.331800
     25 H9           0.5500    -2.9940     2.1840 hn         1 2BQ       0.331800
     26 H11          1.0480     1.2230    -1.2130 h1         1 2BQ       0.083200
     27 H12          1.1580     1.4560     0.5310 h1         1 2BQ       0.083200
@<TRIPOS>BOND
     1     1     2 1   
     2     2     3 ar  
     3     2     4 ar  
     4     3     7 ar  
     5     3    17 1   
     6     4     5 ar  
     7     4    18 1   
     8     5     6 ar  
     9     5    19 1   
    10     6     7 ar  
    11     6     8 1   
    12     7    20 1   
    13     8     9 1   
    14     8    10 1   
    15     8    12 1   
    16     9    21 1   
    17    10    11 1   
    18    10    22 1   
    19    10    23 1   
    20    11    24 1   
    21    11    25 1   
    22    12    13 1   
    23    12    26 1   
    24    12    27 1   
    25    13    14 1   
    26    13    15 1   
    27    13    16 1   
@<TRIPOS>SUBSTRUCTURE
     1 2BQ         1 TEMP              0 ****  ****    0 ROOT
