@<TRIPOS>MOLECULE
2BQ
   27    27     1     0     0
SMALL
No Charge or Current Charge


@<TRIPOS>ATOM
      1 Cl          -5.3310     0.8590    -0.0030 cl         1 2BQ      -0.248000
      2 C3          -3.6230     0.4440    -0.0450 ca         1 2BQ       0.106000
      3 C2          -2.7720     0.8670     0.9860 ca         1 2BQ      -0.117500
      4 C4          -3.1090    -0.3060    -1.1130 ca         1 2BQ      -0.117500
      5 C5          -1.7430    -0.6380    -1.1500 ca         1 2BQ      -0.085500
      6 C6          -0.8680    -0.2260    -0.1130 ca         1 2BQ      -0.019300
      7 C1          -1.4060     0.5370     0.9510 ca         1 2BQ      -0.085500
      8 C7           0.6480    -0.5580    -0.1260 c3         1 2BQ       0.277300
      9 O4           0.9710    -1.3970    -1.2410 oh         1 2BQ      -0.709000
     10 C8           1.0520    -1.3260     1.1930 c3         1 2BQ       0.119800
     11 N            0.2660    -2.5680     1.4510 n8         1 2BQ      -0.996200
     12 C9           1.4210     0.7640    -0.3380 c3         1 2BQ      -0.393400
     13 S            3.2160     0.6540    -0.3390 s6         1 2BQ       1.312600
     14 O1           3.6360     1.9340    -0.9230 o          1 2BQ      -0.687867
     15 O2           3.5650     0.4860     1.0760 o          1 2BQ      -0.687867
     16 O3           3.4730    -0.5210    -1.1840 o          1 2BQ      -0.687867
     17 H1          -3.1700     1.4520     1.8110 ha         1 2BQ       0.112500
     18 H2          -3.7690    -0.6300    -1.9140 ha         1 2BQ       0.112500
     19 H3          -1.3750    -1.2170    -1.9930 ha         1 2BQ       0.125000
     20 H4          -0.7630     0.8790     1.7580 ha         1 2BQ       0.125000
     21 H5           1.9460    -1.2580    -1.3770 ho         1 2BQ       0.504000
     22 H6           2.1060    -1.6240     1.1250 h1         1 2BQ       0.049200
     23 H7           0.9530    -0.6590     2.0610 h1         1 2BQ       0.049200
     24 H8           0.3170    -3.1540     0.6090 hn         1 2BQ       0.387000
     25 H9           0.7380    -3.1250     2.1720 hn         1 2BQ       0.387000
     26 H11          1.1480     1.1940    -1.3060 h1         1 2BQ       0.083200
     27 H12          1.1740     1.4870     0.4440 h1         1 2BQ       0.083200
@<TRIPOS>BOND
     1     1     2 1   
     2     2     3 ar  
     3     2     4 ar  
     4     3     7 ar  
     5     3    17 1   
     6     4     5 ar  
     7     4    18 1   
     8     5     6 ar  
     9     5    19 1   
    10     6     7 ar  
    11     6     8 1   
    12     7    20 1   
    13     8     9 1   
    14     8    10 1   
    15     8    12 1   
    16     9    21 1   
    17    10    11 1   
    18    10    22 1   
    19    10    23 1   
    20    11    24 1   
    21    11    25 1   
    22    12    13 1   
    23    12    26 1   
    24    12    27 1   
    25    13    14 1   
    26    13    15 1   
    27    13    16 1   
@<TRIPOS>SUBSTRUCTURE
     1 2BQ         1 TEMP              0 ****  ****    0 ROOT
