@<TRIPOS>MOLECULE
2BR
   13    13     1     0     0
SMALL
No Charge or Current Charge


@<TRIPOS>ATOM
      1 C13          2.2890    -1.5090     0.0230 ca         1 2BR      -0.150000
      2 C14          0.8880    -1.4210    -0.0520 ca         1 2BR      -0.043000
      3 C15          0.2670    -0.1620    -0.1380 ca         1 2BR      -0.118900
      4 C16          1.0500     1.0090    -0.1500 ca         1 2BR       0.174100
      5 C17          2.4490     0.9180    -0.0750 ca         1 2BR      -0.150000
      6 C18          3.0710    -0.3410     0.0110 ca         1 2BR      -0.059000
      7 O3           0.4600     2.2340    -0.2330 oh         1 2BR      -0.528100
      8 Br1         -1.6470    -0.0680    -0.2390 br         1 2BR      -0.105100
      9 H13          2.7690    -2.4830     0.0900 ha         1 2BR       0.121000
     10 H14          0.2860    -2.3280    -0.0430 ha         1 2BR       0.128000
     11 H17          3.0520     1.8220    -0.0840 ha         1 2BR       0.132000
     12 H18          4.1560    -0.4100     0.0690 ha         1 2BR       0.119000
     13 HO3         -0.5110     2.0930    -0.2760 ho         1 2BR       0.481000
@<TRIPOS>BOND
     1     1     2 ar  
     2     1     6 ar  
     3     1     9 1   
     4     2     3 ar  
     5     2    10 1   
     6     3     4 ar  
     7     3     8 1   
     8     4     5 ar  
     9     4     7 1   
    10     5     6 ar  
    11     5    11 1   
    12     6    12 1   
    13     7    13 1   
@<TRIPOS>SUBSTRUCTURE
     1 2BR         1 TEMP              0 ****  ****    0 ROOT
