@<TRIPOS>MOLECULE
2BR
   13    13     1     0     0
SMALL
abcg2


@<TRIPOS>ATOM
      1 C13          2.2850    -1.5080     0.0240 ca         1 2BR      -0.150000
      2 C14          0.9040    -1.4300    -0.0510 ca         1 2BR      -0.043000
      3 C15          0.2830    -0.1910    -0.1390 ca         1 2BR      -0.118900
      4 C16          1.0250     0.9930    -0.1520 ca         1 2BR       0.174100
      5 C17          2.4160     0.8940    -0.0780 ca         1 2BR      -0.150000
      6 C18          3.0360    -0.3390     0.0090 ca         1 2BR      -0.059000
      7 O3           0.5020     2.2240    -0.2320 oh         1 2BR      -0.528100
      8 BR1         -1.6040    -0.1130    -0.2410 br         1 2BR      -0.105100
      9 H13          2.7660    -2.4740     0.0940 ha         1 2BR       0.121000
     10 H14          0.3100    -2.3340    -0.0410 ha         1 2BR       0.128000
     11 H17          3.0020     1.8040    -0.0880 ha         1 2BR       0.132000
     12 H18          4.1150    -0.3850     0.0650 ha         1 2BR       0.119000
     13 HO3         -0.4620     2.2120    -0.2670 ho         1 2BR       0.481000
@<TRIPOS>BOND
     1     1     2 ar  
     2     1     6 ar  
     3     1     9 1   
     4     2     3 ar  
     5     2    10 1   
     6     3     4 ar  
     7     3     8 1   
     8     4     5 ar  
     9     4     7 1   
    10     5     6 ar  
    11     5    11 1   
    12     6    12 1   
    13     7    13 1   
@<TRIPOS>SUBSTRUCTURE
     1 2BR         1 TEMP              0 ****  ****    0 ROOT
