@<TRIPOS>MOLECULE
2BS
   25    26     1     0     0
SMALL
No Charge or Current Charge


@<TRIPOS>ATOM
      1 C1          -2.4060    -0.7620     0.0080 c          1 2BS       0.612700
      2 S1           2.9000    -1.3660    -0.0610 ss         1 2BS      -0.028200
      3 C2          -4.7670    -0.2770     0.0390 c3         1 2BS       0.168600
      4 N2           2.9270     1.3390    -0.0650 nc         1 2BS      -0.644100
      5 O2          -3.4040     0.1790     0.0200 os         1 2BS      -0.447100
      6 C3          -5.6690     0.9680     0.0490 c3         1 2BS      -0.098100
      7 C4          -1.0160    -0.1730    -0.0110 ca         1 2BS      -0.160600
      8 C5           0.1060    -1.0320    -0.0250 ca         1 2BS       0.002000
      9 C6           1.3920    -0.4710    -0.0430 ca         1 2BS      -0.217000
     10 C7           3.6660     0.2410    -0.0770 cd         1 2BS       0.659100
     11 C8           1.6060     0.8970    -0.0480 ca         1 2BS       0.178400
     12 C9           0.5010     1.7600    -0.0340 ca         1 2BS      -0.104000
     13 O01         -2.6170    -1.9680     0.0120 o          1 2BS      -0.499000
     14 N02          4.9950     0.4390    -0.0850 nv         1 2BS      -1.024200
     15 C10         -0.8050     1.2300    -0.0160 ca         1 2BS      -0.043000
     16 H2          -4.9900    -0.8830    -0.8490 h1         1 2BS       0.049200
     17 H2A         -4.9670    -0.8810     0.9340 h1         1 2BS       0.049200
     18 H3          -5.4710     1.5800     0.9360 hc         1 2BS       0.046700
     19 H3A         -5.4950     1.5780    -0.8450 hc         1 2BS       0.046700
     20 H3B         -6.7240     0.6710     0.0630 hc         1 2BS       0.046700
     21 H5          -0.0160    -2.1140    -0.0220 ha         1 2BS       0.144000
     22 H9           0.6530     2.8360    -0.0380 ha         1 2BS       0.134000
     23 HN02         5.5790    -0.3240     0.2380 hn         1 2BS       0.499000
     24 HN0A         5.2990     1.3730     0.1600 hn         1 2BS       0.499000
     25 H10         -1.6470     1.9190    -0.0060 ha         1 2BS       0.132000
@<TRIPOS>BOND
     1     1     5 1   
     2     1     7 1   
     3     1    13 2   
     4     2     9 1   
     5     2    10 1   
     6     3     5 1   
     7     3     6 1   
     8     3    16 1   
     9     3    17 1   
    10     4    10 2   
    11     4    11 1   
    12     6    18 1   
    13     6    19 1   
    14     6    20 1   
    15     7     8 ar  
    16     7    15 ar  
    17     8     9 ar  
    18     8    21 1   
    19     9    11 ar  
    20    10    14 1   
    21    11    12 ar  
    22    12    15 ar  
    23    12    22 1   
    24    14    23 1   
    25    14    24 1   
    26    15    25 1   
@<TRIPOS>SUBSTRUCTURE
     1 2BS         1 TEMP              0 ****  ****    0 ROOT
