@<TRIPOS>MOLECULE
2BS
   25    26     1     0     0
SMALL
abcg2


@<TRIPOS>ATOM
      1 C1          -2.3890    -0.7250    -0.0040 c          1 2BS       0.612700
      2 S1           2.8550    -1.2770     0.0030 ss         1 2BS      -0.028200
      3 C2          -4.7130    -0.2810     0.0210 c3         1 2BS       0.168600
      4 N2           2.8580     1.3280    -0.0360 nc         1 2BS      -0.644100
      5 O2          -3.3530     0.1810     0.0110 os         1 2BS      -0.447100
      6 C3          -5.6140     0.9270     0.0640 c3         1 2BS      -0.098100
      7 C4          -1.0360    -0.1250    -0.0150 ca         1 2BS      -0.160600
      8 C5           0.0560    -0.9920    -0.0050 ca         1 2BS       0.002000
      9 C6           1.3230    -0.4510    -0.0130 ca         1 2BS      -0.217000
     10 C7           3.6470     0.2970    -0.0160 cd         1 2BS       0.659100
     11 C8           1.5500     0.9390    -0.0340 ca         1 2BS       0.178400
     12 C9           0.4470     1.7930    -0.0470 ca         1 2BS      -0.104000
     13 O01         -2.5950    -1.9170    -0.0070 o          1 2BS      -0.499000
     14 N02          4.9790     0.3640    -0.0390 nv         1 2BS      -1.024200
     15 C10         -0.8280     1.2610    -0.0360 ca         1 2BS      -0.043000
     16 H2          -4.9020    -0.8780    -0.8740 h1         1 2BS       0.049200
     17 H2A         -4.8750    -0.9220     0.8900 h1         1 2BS       0.049200
     18 H3          -5.4490     1.5230     0.9620 hc         1 2BS       0.046700
     19 H3A         -5.4760     1.5650    -0.8080 hc         1 2BS       0.046700
     20 H3B         -6.6520     0.5950     0.0710 hc         1 2BS       0.046700
     21 H5          -0.0920    -2.0640     0.0110 ha         1 2BS       0.144000
     22 H9           0.5960     2.8650    -0.0630 ha         1 2BS       0.134000
     23 HN02         5.5460    -0.4440     0.1500 hn         1 2BS       0.499000
     24 HN0A         5.4150     1.2620     0.0920 hn         1 2BS       0.499000
     25 H10         -1.6700     1.9370    -0.0450 ha         1 2BS       0.132000
@<TRIPOS>BOND
     1     1     5 1   
     2     1     7 1   
     3     1    13 2   
     4     2     9 1   
     5     2    10 1   
     6     3     5 1   
     7     3     6 1   
     8     3    16 1   
     9     3    17 1   
    10     4    10 2   
    11     4    11 1   
    12     6    18 1   
    13     6    19 1   
    14     6    20 1   
    15     7     8 ar  
    16     7    15 ar  
    17     8     9 ar  
    18     8    21 1   
    19     9    11 ar  
    20    10    14 1   
    21    11    12 ar  
    22    12    15 ar  
    23    12    22 1   
    24    14    23 1   
    25    14    24 1   
    26    15    25 1   
@<TRIPOS>SUBSTRUCTURE
     1 2BS         1 TEMP              0 ****  ****    0 ROOT
