@<TRIPOS>MOLECULE
2BV
   52    53     1     0     0
SMALL
abcg2


@<TRIPOS>ATOM
      1 O1         -45.7320    22.6050   -27.0340 o          1 2BV      -0.823000
      2 P          -46.2160    21.3850   -26.2510 p5         1 2BV       1.411000
      3 O2         -45.1890    20.3470   -25.8690 o          1 2BV      -0.823000
      4 C12        -47.1130    22.0010   -24.7790 c3         1 2BV      -0.443400
      5 C13        -47.7550    20.9480   -23.8610 c6         1 2BV      -0.011700
      6 C18        -46.7490    20.3630   -22.8400 c6         1 2BV      -0.073900
      7 C17        -46.8260    21.0970   -21.5010 c6         1 2BV      -0.070900
      8 C16        -48.2020    20.8940   -20.8370 c6         1 2BV      -0.071400
      9 C15        -49.3290    20.7560   -21.8820 c6         1 2BV      -0.070900
     10 C14        -48.9860    21.5410   -23.1450 c6         1 2BV      -0.073900
     11 C11        -47.5350    20.6100   -27.2680 c3         1 2BV      -0.483400
     12 C10        -48.4480    21.6510   -27.9180 c3         1 2BV       0.177300
     13 O3         -47.7220    22.4340   -28.8690 oh         1 2BV      -0.734000
     14 C9         -49.6470    21.0070   -28.6020 c3         1 2BV       0.161800
     15 N          -50.5910    21.9110   -29.2630 n7         1 2BV      -0.877400
     16 C2         -50.9300    23.1410   -28.5410 c3         1 2BV       0.216800
     17 C1         -51.8880    23.9690   -29.4010 c3         1 2BV      -0.086100
     18 C3         -51.5380    22.8470   -27.1860 ca         1 2BV      -0.053300
     19 C8         -51.2050    23.6360   -26.0870 ca         1 2BV      -0.096000
     20 C7         -51.7600    23.3960   -24.8400 ca         1 2BV      -0.098000
     21 C6         -52.6560    22.3480   -24.6700 ca         1 2BV       0.118000
     22 CL1        -53.3020    22.0390   -23.0830 cl         1 2BV      -0.202000
     23 C5         -53.0000    21.5550   -25.7640 ca         1 2BV       0.118000
     24 CL2        -54.1180    20.2290   -25.5960 cl         1 2BV      -0.205000
     25 C4         -52.4470    21.8080   -27.0120 ca         1 2BV      -0.077000
     26 H2         -46.4120    22.6220   -24.2110 hc         1 2BV       0.049700
     27 H3         -47.8810    22.6830   -25.1560 hc         1 2BV       0.049700
     28 H4         -48.1150    20.1210   -24.4790 hc         1 2BV       0.033700
     29 H5         -46.9680    19.3040   -22.6730 hc         1 2BV       0.041700
     30 H6         -45.7420    20.4080   -23.2560 hc         1 2BV       0.041700
     31 H7         -46.0320    20.7600   -20.8310 hc         1 2BV       0.029450
     32 H8         -46.6510    22.1640   -21.6700 hc         1 2BV       0.029450
     33 H9         -48.4140    21.7390   -20.1770 hc         1 2BV       0.021200
     34 H10        -50.2780    21.0950   -21.4620 hc         1 2BV       0.029450
     35 H11        -48.7850    22.5830   -22.8740 hc         1 2BV       0.041700
     36 H12        -49.8300    21.5640   -23.8370 hc         1 2BV       0.041700
     37 H13        -48.1180    19.9270   -26.6450 hc         1 2BV       0.059200
     38 H14        -47.0500    20.0120   -28.0450 hc         1 2BV       0.059200
     39 H15        -48.8270    22.3120   -27.1290 h1         1 2BV       0.009700
     40 H16        -46.9030    22.6930   -28.3860 ho         1 2BV       0.513000
     41 H17        -50.1780    20.4290   -27.8400 h1         1 2BV       0.046700
     42 H18        -49.2940    20.2980   -29.3550 h1         1 2BV       0.046700
     43 H19        -50.2190    22.1760   -30.1670 hn         1 2BV       0.418000
     44 H21        -50.0380    23.7520   -28.3570 h1         1 2BV       0.052700
     45 H22        -52.1270    24.9110   -28.9070 hc         1 2BV       0.034700
     46 H23        -51.4260    24.1940   -30.3660 hc         1 2BV       0.034700
     47 H24        -52.8150    23.4200   -29.5780 hc         1 2BV       0.034700
     48 H25        -50.4890    24.4410   -26.2020 ha         1 2BV       0.128000
     49 H26        -51.4870    24.0030   -23.9880 ha         1 2BV       0.129000
     50 H27        -52.7160    21.1800   -27.8490 ha         1 2BV       0.146000
     51 H28        -48.1790    20.0020   -20.2040 hc         1 2BV       0.021200
     52 H29        -49.4670    19.7030   -22.1470 hc         1 2BV       0.029450
@<TRIPOS>BOND
     1     1     2 1   
     2     2     3 1   
     3     2     4 1   
     4     2    11 1   
     5     4     5 1   
     6     4    26 1   
     7     4    27 1   
     8     5     6 1   
     9     5    10 1   
    10     5    28 1   
    11     6     7 1   
    12     6    29 1   
    13     6    30 1   
    14     7     8 1   
    15     7    31 1   
    16     7    32 1   
    17     8     9 1   
    18     8    33 1   
    19     8    51 1   
    20     9    10 1   
    21     9    34 1   
    22     9    52 1   
    23    10    35 1   
    24    10    36 1   
    25    11    12 1   
    26    11    37 1   
    27    11    38 1   
    28    12    13 1   
    29    12    14 1   
    30    12    39 1   
    31    13    40 1   
    32    14    15 1   
    33    14    41 1   
    34    14    42 1   
    35    15    16 1   
    36    15    43 1   
    37    16    17 1   
    38    16    18 1   
    39    16    44 1   
    40    17    45 1   
    41    17    46 1   
    42    17    47 1   
    43    18    19 ar  
    44    18    25 ar  
    45    19    20 ar  
    46    19    48 1   
    47    20    21 ar  
    48    20    49 1   
    49    21    22 1   
    50    21    23 ar  
    51    23    24 1   
    52    23    25 ar  
    53    25    50 1   
@<TRIPOS>SUBSTRUCTURE
     1 2BV         1 TEMP              0 ****  ****    0 ROOT
