@<TRIPOS>MOLECULE
2BV
   52    53     1     0     0
SMALL
No Charge or Current Charge


@<TRIPOS>ATOM
      1 O1         -45.3760    22.5740   -27.2210 o          1 2BV      -0.823000
      2 P          -45.8930    21.5180   -26.2950 p5         1 2BV       1.411000
      3 O2         -44.8500    20.5310   -25.8820 o          1 2BV      -0.823000
      4 C12        -46.6720    22.3070   -24.8200 c3         1 2BV      -0.443400
      5 C13        -47.8880    21.6470   -24.0960 c6         1 2BV      -0.011700
      6 C18        -47.5680    20.2380   -23.4970 c6         1 2BV      -0.073900
      7 C17        -47.2220    20.3080   -21.9900 c6         1 2BV      -0.070900
      8 C16        -48.4160    20.8620   -21.1600 c6         1 2BV      -0.071400
      9 C15        -49.2950    21.8690   -21.9550 c6         1 2BV      -0.070900
     10 C14        -48.4610    22.6210   -23.0190 c6         1 2BV      -0.073900
     11 C11        -47.2410    20.6730   -27.1820 c3         1 2BV      -0.483400
     12 C10        -48.2150    21.6630   -27.8240 c3         1 2BV       0.177300
     13 O3         -47.5080    22.3270   -28.8730 oh         1 2BV      -0.734000
     14 C9         -49.5090    20.9720   -28.3620 c3         1 2BV       0.161800
     15 N          -50.4280    21.9130   -29.0580 n7         1 2BV      -0.877400
     16 C2         -50.9780    23.0290   -28.2560 c3         1 2BV       0.216800
     17 C1         -51.9520    23.8410   -29.1300 c3         1 2BV      -0.086100
     18 C3         -51.6510    22.5420   -26.9690 ca         1 2BV      -0.053300
     19 C8         -51.2820    23.0980   -25.7280 ca         1 2BV      -0.096000
     20 C7         -51.8900    22.6550   -24.5410 ca         1 2BV      -0.098000
     21 C6         -52.8650    21.6450   -24.5810 ca         1 2BV       0.118000
     22 Cl1        -53.5960    21.1030   -23.0690 cl         1 2BV      -0.202000
     23 C5         -53.2410    21.0840   -25.8190 ca         1 2BV       0.118000
     24 Cl2        -54.4630    19.8130   -25.9100 cl         1 2BV      -0.205000
     25 C4         -52.6390    21.5360   -27.0050 ca         1 2BV      -0.077000
     26 H2         -45.8480    22.4560   -24.1140 hc         1 2BV       0.049700
     27 H3         -46.9580    23.3020   -25.1760 hc         1 2BV       0.049700
     28 H4         -48.6690    21.5120   -24.8570 hc         1 2BV       0.033700
     29 H5         -48.4430    19.5840   -23.6260 hc         1 2BV       0.041700
     30 H6         -46.7530    19.7480   -24.0430 hc         1 2BV       0.041700
     31 H7         -46.9390    19.3140   -21.6180 hc         1 2BV       0.029450
     32 H8         -46.3420    20.9510   -21.8510 hc         1 2BV       0.029450
     33 H9         -48.0260    21.3440   -20.2530 hc         1 2BV       0.021200
     34 H10        -49.7650    22.5830   -21.2640 hc         1 2BV       0.029450
     35 H11        -47.6430    23.1540   -22.5140 hc         1 2BV       0.041700
     36 H12        -49.0720    23.3940   -23.5030 hc         1 2BV       0.041700
     37 H13        -47.7590    20.0300   -26.4640 hc         1 2BV       0.059200
     38 H14        -46.7890    20.0240   -27.9390 hc         1 2BV       0.059200
     39 H15        -48.5120    22.3940   -27.0610 h1         1 2BV       0.009700
     40 H16        -46.6320    22.5750   -28.4690 ho         1 2BV       0.513000
     41 H17        -50.0190    20.4820   -27.5220 h1         1 2BV       0.046700
     42 H18        -49.2080    20.1730   -29.0540 h1         1 2BV       0.046700
     43 H19        -49.8770    22.3340   -29.8160 hn         1 2BV       0.418000
     44 H21        -50.1610    23.7090   -27.9740 h1         1 2BV       0.052700
     45 H22        -52.3550    24.6890   -28.5630 hc         1 2BV       0.034700
     46 H23        -51.4420    24.2370   -30.0160 hc         1 2BV       0.034700
     47 H24        -52.7940    23.2220   -29.4630 hc         1 2BV       0.034700
     48 H25        -50.5230    23.8770   -25.6810 ha         1 2BV       0.128000
     49 H26        -51.6070    23.0940   -23.5880 ha         1 2BV       0.129000
     50 H27        -52.9300    21.0950   -27.9550 ha         1 2BV       0.146000
     51 H28        -49.0480    20.0320   -20.8160 hc         1 2BV       0.021200
     52 H29        -50.1150    21.3320   -22.4500 hc         1 2BV       0.029450
@<TRIPOS>BOND
     1     1     2 1   
     2     2     3 1   
     3     2     4 1   
     4     2    11 1   
     5     4     5 1   
     6     4    26 1   
     7     4    27 1   
     8     5     6 1   
     9     5    10 1   
    10     5    28 1   
    11     6     7 1   
    12     6    29 1   
    13     6    30 1   
    14     7     8 1   
    15     7    31 1   
    16     7    32 1   
    17     8     9 1   
    18     8    33 1   
    19     8    51 1   
    20     9    10 1   
    21     9    34 1   
    22     9    52 1   
    23    10    35 1   
    24    10    36 1   
    25    11    12 1   
    26    11    37 1   
    27    11    38 1   
    28    12    13 1   
    29    12    14 1   
    30    12    39 1   
    31    13    40 1   
    32    14    15 1   
    33    14    41 1   
    34    14    42 1   
    35    15    16 1   
    36    15    43 1   
    37    16    17 1   
    38    16    18 1   
    39    16    44 1   
    40    17    45 1   
    41    17    46 1   
    42    17    47 1   
    43    18    19 ar  
    44    18    25 ar  
    45    19    20 ar  
    46    19    48 1   
    47    20    21 ar  
    48    20    49 1   
    49    21    22 1   
    50    21    23 ar  
    51    23    24 1   
    52    23    25 ar  
    53    25    50 1   
@<TRIPOS>SUBSTRUCTURE
     1 2BV         1 TEMP              0 ****  ****    0 ROOT
