@<TRIPOS>MOLECULE
2BW
   33    32     1     0     0
SMALL
bcc


@<TRIPOS>ATOM
      1 O3           0.3460     1.0140     1.6000 o          1 2BW      -0.803500
      2 P            0.4480     0.8850     0.0950 p5         1 2BW       1.071400
      3 O4           0.6960     2.1230    -0.7430 o          1 2BW      -0.803500
      4 C6           1.7100    -0.3870    -0.3100 c3         1 2BW      -0.276600
      5 C7           3.1070     0.0330     0.1360 c3         1 2BW      -0.041400
      6 C8           4.1560    -1.0250    -0.1720 c3         1 2BW       0.144800
      7 N            5.4760    -0.5990     0.2710 n8         1 2BW      -0.886800
      8 C3          -1.0910     0.0650    -0.5840 c3         1 2BW       0.178700
      9 O2          -1.3610    -1.0440     0.2170 os         1 2BW      -0.420100
     10 C4          -2.2540    -1.9880    -0.3470 c3         1 2BW       0.132400
     11 C5          -2.3320    -3.1900     0.5670 c3         1 2BW      -0.087600
     12 O1          -2.1950     0.9100    -0.7310 os         1 2BW      -0.420100
     13 C2          -2.6390     1.5950     0.4290 c3         1 2BW       0.132400
     14 C1          -4.0240     2.1380     0.1540 c3         1 2BW      -0.087600
     15 H2           1.4310    -1.3310     0.1680 hc         1 2BW       0.041200
     16 H3           1.7050    -0.5720    -1.3890 hc         1 2BW       0.041200
     17 H4           3.3900     0.9700    -0.3500 hc         1 2BW       0.051700
     18 H5           3.1000     0.2300     1.2130 hc         1 2BW       0.051700
     19 H6           3.8320    -1.9800     0.2680 h1         1 2BW       0.015700
     20 H7           4.1930    -1.1850    -1.2530 h1         1 2BW       0.015700
     21 H8           5.4870    -0.5500     1.2830 hn         1 2BW       0.320800
     22 H9           6.1590    -1.3070     0.0290 hn         1 2BW       0.320800
     23 H11         -0.8720    -0.2620    -1.6140 h2         1 2BW       0.038700
     24 H12         -3.2510    -1.5540    -0.4810 h1         1 2BW       0.027950
     25 H13         -1.9000    -2.2920    -1.3410 h1         1 2BW       0.027950
     26 H14         -2.7150    -2.9170     1.5520 hc         1 2BW       0.026367
     27 H15         -3.0060    -3.9350     0.1440 hc         1 2BW       0.026367
     28 H16         -1.3550    -3.6560     0.6950 hc         1 2BW       0.026367
     29 H17         -2.6670     0.9260     1.2940 h1         1 2BW       0.027950
     30 H18         -1.9580     2.4160     0.6770 h1         1 2BW       0.027950
     31 H19         -4.0240     2.8230    -0.6950 hc         1 2BW       0.026367
     32 H20         -4.7330     1.3340    -0.0520 hc         1 2BW       0.026367
     33 H21         -4.3860     2.6870     1.0230 hc         1 2BW       0.026367
@<TRIPOS>BOND
     1     1     2 1   
     2     2     3 1   
     3     2     4 1   
     4     2     8 1   
     5     4     5 1   
     6     4    15 1   
     7     4    16 1   
     8     5     6 1   
     9     5    17 1   
    10     5    18 1   
    11     6     7 1   
    12     6    19 1   
    13     6    20 1   
    14     7    21 1   
    15     7    22 1   
    16     8     9 1   
    17     8    12 1   
    18     8    23 1   
    19     9    10 1   
    20    10    11 1   
    21    10    24 1   
    22    10    25 1   
    23    11    26 1   
    24    11    27 1   
    25    11    28 1   
    26    12    13 1   
    27    13    14 1   
    28    13    29 1   
    29    13    30 1   
    30    14    31 1   
    31    14    32 1   
    32    14    33 1   
@<TRIPOS>SUBSTRUCTURE
     1 2BW         1 TEMP              0 ****  ****    0 ROOT
