@<TRIPOS>MOLECULE
2BW
   33    32     1     0     0
SMALL
No Charge or Current Charge


@<TRIPOS>ATOM
      1 O3           0.4840     1.2380     1.4650 o          1 2BW      -0.803500
      2 P            0.5100     0.9060     0.0000 p5         1 2BW       1.387000
      3 O4           0.8170     2.1100    -0.8440 o          1 2BW      -0.803500
      4 C6           1.8290    -0.3580    -0.2910 c3         1 2BW      -0.434400
      5 C7           3.2610     0.0970     0.0890 c3         1 2BW      -0.041400
      6 C8           4.3280    -0.9890    -0.1720 c3         1 2BW       0.144800
      7 N            5.6790    -0.5330     0.2020 n8         1 2BW      -0.997200
      8 C3          -1.0950     0.0150    -0.5850 c3         1 2BW       0.067300
      9 O2          -1.4540    -1.1470     0.2130 os         1 2BW      -0.466500
     10 C4          -2.3900    -2.0480    -0.4050 c3         1 2BW       0.155600
     11 C5          -2.6170    -3.2210     0.5630 c3         1 2BW      -0.087600
     12 O1          -2.2860     0.8500    -0.6970 os         1 2BW      -0.466500
     13 C2          -2.7710     1.4380     0.5270 c3         1 2BW       0.155600
     14 C1          -4.0670     2.1970     0.1940 c3         1 2BW      -0.087600
     15 H2           1.5510    -1.2470     0.2860 hc         1 2BW       0.041200
     16 H3           1.7880    -0.6230    -1.3530 hc         1 2BW       0.041200
     17 H4           3.5190     0.9980    -0.4820 hc         1 2BW       0.051700
     18 H5           3.2820     0.3740     1.1510 hc         1 2BW       0.051700
     19 H6           4.0910    -1.8900     0.4110 h1         1 2BW       0.015700
     20 H7           4.3330    -1.2550    -1.2380 h1         1 2BW       0.015700
     21 H8           5.7050    -0.3660     1.2150 hn         1 2BW       0.376000
     22 H9           6.3410    -1.3060     0.0660 hn         1 2BW       0.376000
     23 H11         -0.7890    -0.3130    -1.5850 h2         1 2BW       0.038700
     24 H12         -3.3480    -1.5500    -0.6010 h1         1 2BW       0.027950
     25 H13         -1.9940    -2.4300    -1.3560 h1         1 2BW       0.027950
     26 H14         -3.0290    -2.8640     1.5140 hc         1 2BW       0.026367
     27 H15         -3.3250    -3.9370     0.1300 hc         1 2BW       0.026367
     28 H16         -1.6750    -3.7470     0.7620 hc         1 2BW       0.026367
     29 H17         -2.9880     0.6690     1.2800 h1         1 2BW       0.027950
     30 H18         -2.0420     2.1430     0.9450 h1         1 2BW       0.027950
     31 H19         -3.8760     2.9860    -0.5430 hc         1 2BW       0.026367
     32 H20         -4.8230     1.5140    -0.2090 hc         1 2BW       0.026367
     33 H21         -4.4740     2.6640     1.0990 hc         1 2BW       0.026367
@<TRIPOS>BOND
     1     1     2 1   
     2     2     3 1   
     3     2     4 1   
     4     2     8 1   
     5     4     5 1   
     6     4    15 1   
     7     4    16 1   
     8     5     6 1   
     9     5    17 1   
    10     5    18 1   
    11     6     7 1   
    12     6    19 1   
    13     6    20 1   
    14     7    21 1   
    15     7    22 1   
    16     8     9 1   
    17     8    12 1   
    18     8    23 1   
    19     9    10 1   
    20    10    11 1   
    21    10    24 1   
    22    10    25 1   
    23    11    26 1   
    24    11    27 1   
    25    11    28 1   
    26    12    13 1   
    27    13    14 1   
    28    13    29 1   
    29    13    30 1   
    30    14    31 1   
    31    14    32 1   
    32    14    33 1   
@<TRIPOS>SUBSTRUCTURE
     1 2BW         1 TEMP              0 ****  ****    0 ROOT
