@<TRIPOS>MOLECULE
2BX
   26    26     1     0     0
SMALL
No Charge or Current Charge


@<TRIPOS>ATOM
      1 O1           3.4890    -0.1650     1.3150 o          1 2BX      -0.738500
      2 C1           2.9850    -0.1120     0.2020 c          1 2BX       0.727000
      3 O2           3.3030    -0.8530    -0.7160 o          1 2BX      -0.738500
      4 C2           1.8950     0.9390    -0.0410 c3         1 2BX      -0.200400
      5 C3           0.5080     0.4120     0.4100 c6         1 2BX       0.150300
      6 C6          -0.5710     1.5440     0.4520 c6         1 2BX       0.108800
      7 N           -1.9420     1.0190     0.7380 n7         1 2BX      -0.861400
      8 C5          -2.3180    -0.1370    -0.1310 c6         1 2BX       0.142200
      9 C8          -3.6180    -0.7590     0.4540 c3         1 2BX      -0.076100
     10 C7          -2.6450     0.3780    -1.5680 c3         1 2BX      -0.076100
     11 C4          -1.1750    -1.2150    -0.1640 c6         1 2BX       0.131600
     12 O3           0.0950    -0.6190    -0.5140 os         1 2BX      -0.419000
     13 H2           2.0950     1.8130     0.5910 hc         1 2BX       0.025700
     14 H3           1.8240     1.1870    -1.1080 hc         1 2BX       0.025700
     15 H4           0.6060    -0.0260     1.4150 h1         1 2BX       0.046700
     16 H5          -0.2970     2.2840     1.2190 h1         1 2BX       0.048700
     17 H6          -0.5740     2.0710    -0.5140 h1         1 2BX       0.048700
     18 H7          -1.9540     0.6900     1.7110 hn         1 2BX       0.394000
     19 H9          -4.4360    -0.0290     0.4860 hc         1 2BX       0.031367
     20 H10         -3.9580    -1.6090    -0.1490 hc         1 2BX       0.031367
     21 H11         -3.4610    -1.1250     1.4760 hc         1 2BX       0.031367
     22 H12         -1.7630     0.8000    -2.0630 hc         1 2BX       0.031367
     23 H13         -3.0110    -0.4360    -2.2050 hc         1 2BX       0.031367
     24 H14         -3.4180     1.1550    -1.5500 hc         1 2BX       0.031367
     25 H15         -1.0800    -1.6950     0.8220 h1         1 2BX       0.035700
     26 H16         -1.4160    -1.9990    -0.8960 h1         1 2BX       0.035700
@<TRIPOS>BOND
     1     1     2 1   
     2     2     3 1   
     3     2     4 1   
     4     4     5 1   
     5     4    13 1   
     6     4    14 1   
     7     5     6 1   
     8     5    12 1   
     9     5    15 1   
    10     6     7 1   
    11     6    16 1   
    12     6    17 1   
    13     7     8 1   
    14     7    18 1   
    15     8     9 1   
    16     8    10 1   
    17     8    11 1   
    18     9    19 1   
    19     9    20 1   
    20     9    21 1   
    21    10    22 1   
    22    10    23 1   
    23    10    24 1   
    24    11    12 1   
    25    11    25 1   
    26    11    26 1   
@<TRIPOS>SUBSTRUCTURE
     1 2BX         1 TEMP              0 ****  ****    0 ROOT
