@<TRIPOS>MOLECULE
2BX
   26    26     1     0     0
SMALL
bcc


@<TRIPOS>ATOM
      1 O1           2.9590    -0.8580     1.0820 o          1 2BX      -0.843800
      2 C1           2.9260    -0.1600     0.0490 c          1 2BX       0.937600
      3 O2           3.7240    -0.2180    -0.9090 o          1 2BX      -0.843800
      4 C2           1.8200     0.9080    -0.0280 c3         1 2BX      -0.200400
      5 C3           0.4630     0.4240     0.4310 c6         1 2BX       0.127100
      6 C6          -0.5890     1.5260     0.4190 c6         1 2BX       0.108800
      7 N           -1.9370     1.0460     0.6930 n7         1 2BX      -0.806200
      8 C5          -2.3040    -0.1260    -0.1120 c6         1 2BX       0.142200
      9 C8          -3.5750    -0.7280     0.4720 c3         1 2BX      -0.076100
     10 C7          -2.5620     0.3050    -1.5550 c3         1 2BX      -0.076100
     11 C4          -1.1850    -1.1710    -0.0600 c6         1 2BX       0.108400
     12 O3           0.0610    -0.6310    -0.4300 os         1 2BX      -0.372600
     13 H2           2.1130     1.7450     0.6170 hc         1 2BX       0.025700
     14 H3           1.7450     1.3160    -1.0400 hc         1 2BX       0.025700
     15 H4           0.5470     0.0350     1.4580 h1         1 2BX       0.046700
     16 H5          -0.3370     2.2830     1.1650 h1         1 2BX       0.048700
     17 H6          -0.5770     2.0320    -0.5530 h1         1 2BX       0.048700
     18 H7          -1.9880     0.7870     1.6730 hn         1 2BX       0.338800
     19 H9          -4.3880    -0.0010     0.4550 hc         1 2BX       0.031367
     20 H10         -3.8900    -1.6020    -0.0990 hc         1 2BX       0.031367
     21 H11         -3.4280    -1.0440     1.5080 hc         1 2BX       0.031367
     22 H12         -1.6670     0.6910    -2.0430 hc         1 2BX       0.031367
     23 H13         -2.9160    -0.5410    -2.1470 hc         1 2BX       0.031367
     24 H14         -3.3250     1.0840    -1.5900 hc         1 2BX       0.031367
     25 H15         -1.1330    -1.5880     0.9590 h1         1 2BX       0.035700
     26 H16         -1.3940    -2.0000    -0.7430 h1         1 2BX       0.035700
@<TRIPOS>BOND
     1     1     2 1   
     2     2     3 1   
     3     2     4 1   
     4     4     5 1   
     5     4    13 1   
     6     4    14 1   
     7     5     6 1   
     8     5    12 1   
     9     5    15 1   
    10     6     7 1   
    11     6    16 1   
    12     6    17 1   
    13     7     8 1   
    14     7    18 1   
    15     8     9 1   
    16     8    10 1   
    17     8    11 1   
    18     9    19 1   
    19     9    20 1   
    20     9    21 1   
    21    10    22 1   
    22    10    23 1   
    23    10    24 1   
    24    11    12 1   
    25    11    25 1   
    26    11    26 1   
@<TRIPOS>SUBSTRUCTURE
     1 2BX         1 TEMP              0 ****  ****    0 ROOT
