@<TRIPOS>MOLECULE
2BY
   26    26     1     0     0
SMALL
bcc


@<TRIPOS>ATOM
      1 CL          -5.1580     0.7930     0.0680 cl         1 2BY      -0.197400
      2 C3          -3.4700     0.3820     0.0040 ca         1 2BY      -0.008600
      3 C2          -2.7650     0.2060     1.1860 ca         1 2BY      -0.138000
      4 C4          -2.8460     0.2380    -1.2220 ca         1 2BY      -0.138000
      5 C5          -1.4960    -0.0900    -1.2560 ca         1 2BY      -0.123500
      6 C6          -0.7560    -0.2710    -0.0910 ca         1 2BY       0.018700
      7 C1          -1.4190    -0.1160     1.1270 ca         1 2BY      -0.123500
      8 C7           0.7210    -0.5750    -0.1460 c3         1 2BY       0.007600
      9 C8           1.0370    -1.9330     0.4760 c3         1 2BY       0.130800
     10 N            0.2860    -2.9990    -0.1750 n8         1 2BY      -0.907800
     11 C9           1.5460     0.5530     0.4830 c3         1 2BY      -0.221600
     12 P            3.3660     0.5780     0.0580 p5         1 2BY       1.134700
     13 O1           3.8390     1.9450     0.5780 o          1 2BY      -0.931500
     14 O3           4.0220    -0.6040     0.7890 o          1 2BY      -0.931500
     15 O2           3.4110     0.4520    -1.4720 o          1 2BY      -0.931500
     16 H1          -3.2580     0.3240     2.1420 ha         1 2BY       0.115500
     17 H2          -3.3980     0.3790    -2.1420 ha         1 2BY       0.115500
     18 H3          -1.0110    -0.2050    -2.2180 ha         1 2BY       0.138000
     19 H4          -0.8770    -0.2440     2.0570 ha         1 2BY       0.138000
     20 H5           1.0080    -0.6260    -1.2030 hc         1 2BY       0.072700
     21 H6           2.1230    -2.0640     0.4450 h1         1 2BY       0.063700
     22 H7           0.7620    -1.9150     1.5360 h1         1 2BY       0.063700
     23 H8           0.5370    -3.0250    -1.1560 hn         1 2BY       0.312300
     24 H9           0.5840    -3.8920     0.1990 hn         1 2BY       0.312300
     25 H11          1.1300     1.5080     0.1450 hc         1 2BY       0.013700
     26 H12          1.4140     0.5420     1.5730 hc         1 2BY       0.013700
@<TRIPOS>BOND
     1     1     2 1   
     2     2     3 ar  
     3     2     4 ar  
     4     3     7 ar  
     5     3    16 1   
     6     4     5 ar  
     7     4    17 1   
     8     5     6 ar  
     9     5    18 1   
    10     6     7 ar  
    11     6     8 1   
    12     7    19 1   
    13     8     9 1   
    14     8    11 1   
    15     8    20 1   
    16     9    10 1   
    17     9    21 1   
    18     9    22 1   
    19    10    23 1   
    20    10    24 1   
    21    11    12 1   
    22    11    25 1   
    23    11    26 1   
    24    12    13 1   
    25    12    14 1   
    26    12    15 1   
@<TRIPOS>SUBSTRUCTURE
     1 2BY         1 TEMP              0 ****  ****    0 ROOT
