@<TRIPOS>MOLECULE
2BY
   26    26     1     0     0
SMALL
No Charge or Current Charge


@<TRIPOS>ATOM
      1 Cl          -5.2520     0.7480     0.1330 cl         1 2BY      -0.289000
      2 C3          -3.5370     0.3720     0.0400 ca         1 2BY       0.083000
      3 C2          -2.8030     0.1550     1.2170 ca         1 2BY      -0.120000
      4 C4          -2.9030     0.2930    -1.2090 ca         1 2BY      -0.120000
      5 C5          -1.5300    -0.0060    -1.2840 ca         1 2BY      -0.105500
      6 C6          -0.7820    -0.2320    -0.1080 ca         1 2BY       0.018700
      7 C1          -1.4310    -0.1450     1.1430 ca         1 2BY      -0.105500
      8 C7           0.7190    -0.5460    -0.1960 c3         1 2BY       0.007600
      9 C8           1.0650    -1.9300     0.4280 c3         1 2BY       0.130800
     10 N            0.2920    -3.0510    -0.1690 n8         1 2BY      -1.018200
     11 C9           1.5480     0.6170     0.4220 c3         1 2BY      -0.379400
     12 P            3.3730     0.5610     0.1500 p5         1 2BY       1.292500
     13 O1           3.9150     1.9300     0.3800 o          1 2BY      -0.931500
     14 O3           3.9750    -0.3960     1.1190 o          1 2BY      -0.931500
     15 O2           3.6450     0.1310    -1.2510 o          1 2BY      -0.931500
     16 H1          -3.2940     0.2190     2.1840 ha         1 2BY       0.097500
     17 H2          -3.4720     0.4650    -2.1190 ha         1 2BY       0.097500
     18 H3          -1.0490    -0.0620    -2.2570 ha         1 2BY       0.120000
     19 H4          -0.8700    -0.3080     2.0600 ha         1 2BY       0.120000
     20 H5           0.9960    -0.6040    -1.2560 hc         1 2BY       0.072700
     21 H6           2.1340    -2.1390     0.2850 h1         1 2BY       0.063700
     22 H7           0.8720    -1.9020     1.5110 h1         1 2BY       0.063700
     23 H8           0.5280    -3.1270    -1.1650 hn         1 2BY       0.367500
     24 H9           0.6200    -3.9370     0.2320 hn         1 2BY       0.367500
     25 H11          1.2000     1.5640    -0.0050 hc         1 2BY       0.013700
     26 H12          1.3720     0.6710     1.5020 hc         1 2BY       0.013700
@<TRIPOS>BOND
     1     1     2 1   
     2     2     3 ar  
     3     2     4 ar  
     4     3     7 ar  
     5     3    16 1   
     6     4     5 ar  
     7     4    17 1   
     8     5     6 ar  
     9     5    18 1   
    10     6     7 ar  
    11     6     8 1   
    12     7    19 1   
    13     8     9 1   
    14     8    11 1   
    15     8    20 1   
    16     9    10 1   
    17     9    21 1   
    18     9    22 1   
    19    10    23 1   
    20    10    24 1   
    21    11    12 1   
    22    11    25 1   
    23    11    26 1   
    24    12    13 1   
    25    12    14 1   
    26    12    15 1   
@<TRIPOS>SUBSTRUCTURE
     1 2BY         1 TEMP              0 ****  ****    0 ROOT
