@<TRIPOS>MOLECULE
2C0
   25    25     1     0     0
SMALL
No Charge or Current Charge


@<TRIPOS>ATOM
      1 Cl          -4.6600     0.5030    -0.0120 cl         1 2C0      -0.248000
      2 C8          -2.9200     0.2500    -0.0680 ca         1 2C0       0.100000
      3 C7          -2.3080    -0.1470    -1.2670 ca         1 2C0      -0.112500
      4 C6          -0.9170    -0.3490    -1.3120 ca         1 2C0      -0.107500
      5 C9          -2.1460     0.4460     1.0860 ca         1 2C0      -0.112500
      6 C10         -0.7550     0.2440     1.0420 ca         1 2C0      -0.107500
      7 C5          -0.1280    -0.1580    -0.1580 ca         1 2C0      -0.038300
      8 C2           1.3910    -0.3750    -0.2170 c3         1 2C0      -0.007400
      9 C1           1.8590    -1.4800     0.7730 c3         1 2C0       0.151800
     10 N            1.1520    -2.7640     0.5640 n8         1 2C0      -0.995200
     11 C3           2.1390     0.9750    -0.0150 c3         1 2C0      -0.211400
     12 C4           3.6450     0.8270    -0.2910 c          1 2C0       0.720000
     13 O2           4.3850     0.5830     0.6490 o          1 2C0      -0.734000
     14 O1           4.0290     0.9300    -1.4460 o          1 2C0      -0.734000
     15 H1          -2.9090    -0.2970    -2.1600 ha         1 2C0       0.113500
     16 H2          -0.4530    -0.6550    -2.2480 ha         1 2C0       0.121000
     17 H3          -2.6220     0.7550     2.0130 ha         1 2C0       0.113500
     18 H4          -0.1650     0.4030     1.9420 ha         1 2C0       0.121000
     19 H5           1.6520    -0.7320    -1.2210 hc         1 2C0       0.087700
     20 H6           2.9360    -1.6610     0.6520 h1         1 2C0       0.041700
     21 H7           1.6840    -1.1470     1.8050 h1         1 2C0       0.041700
     22 H8           1.4040    -3.4120     1.3190 hn         1 2C0       0.373500
     23 H9           0.1460    -2.6060     0.6960 hn         1 2C0       0.373500
     24 H11          1.6970     1.6590    -0.7500 hc         1 2C0       0.023200
     25 H12          1.9680     1.2810     1.0250 hc         1 2C0       0.023200
@<TRIPOS>BOND
     1     1     2 1   
     2     2     3 ar  
     3     2     5 ar  
     4     3     4 ar  
     5     3    15 1   
     6     4     7 ar  
     7     4    16 1   
     8     5     6 ar  
     9     5    17 1   
    10     6     7 ar  
    11     6    18 1   
    12     7     8 1   
    13     8     9 1   
    14     8    11 1   
    15     8    19 1   
    16     9    10 1   
    17     9    20 1   
    18     9    21 1   
    19    10    22 1   
    20    10    23 1   
    21    11    12 1   
    22    11    24 1   
    23    11    25 1   
    24    12    13 1   
    25    12    14 1   
@<TRIPOS>SUBSTRUCTURE
     1 2C0         1 TEMP              0 ****  ****    0 ROOT
