@<TRIPOS>MOLECULE
2C0
   25    25     1     0     0
SMALL
abcg2


@<TRIPOS>ATOM
      1 CL          -4.5860     0.5770     0.0160 cl         1 2C0      -0.248000
      2 C8          -2.8730     0.2970    -0.0520 ca         1 2C0       0.100000
      3 C7          -2.2820    -0.0310    -1.2600 ca         1 2C0      -0.112500
      4 C6          -0.9110    -0.2600    -1.3000 ca         1 2C0      -0.107500
      5 C9          -2.1190     0.4050     1.1050 ca         1 2C0      -0.112500
      6 C10         -0.7530     0.1770     1.0410 ca         1 2C0      -0.107500
      7 C5          -0.1220    -0.1610    -0.1580 ca         1 2C0      -0.038300
      8 C2           1.3690    -0.4080    -0.2130 c3         1 2C0      -0.007400
      9 C1           1.7840    -1.5270     0.7360 c3         1 2C0       0.151800
     10 N            1.1590    -2.7890     0.3670 n8         1 2C0      -0.995200
     11 C3           2.1340     0.8840     0.0880 c3         1 2C0      -0.211400
     12 C4           3.6380     0.8670    -0.2400 c          1 2C0       0.720000
     13 O2           4.3050     1.7950     0.2610 o          1 2C0      -0.734000
     14 O1           4.0420    -0.0630    -0.9580 o          1 2C0      -0.734000
     15 H1          -2.8740    -0.1150    -2.1610 ha         1 2C0       0.113500
     16 H2          -0.4500    -0.5250    -2.2450 ha         1 2C0       0.121000
     17 H3          -2.5880     0.6600     2.0450 ha         1 2C0       0.113500
     18 H4          -0.1670     0.2570     1.9490 ha         1 2C0       0.121000
     19 H5           1.6210    -0.7310    -1.2250 hc         1 2C0       0.087700
     20 H6           2.8650    -1.6450     0.6600 h1         1 2C0       0.041700
     21 H7           1.5770    -1.2110     1.7710 h1         1 2C0       0.041700
     22 H8           1.4870    -3.5180     0.9840 hn         1 2C0       0.373500
     23 H9           0.1600    -2.7290     0.5260 hn         1 2C0       0.373500
     24 H11          1.6860     1.7070    -0.4780 hc         1 2C0       0.023200
     25 H12          2.0030     1.1580     1.1440 hc         1 2C0       0.023200
@<TRIPOS>BOND
     1     1     2 1   
     2     2     3 ar  
     3     2     5 ar  
     4     3     4 ar  
     5     3    15 1   
     6     4     7 ar  
     7     4    16 1   
     8     5     6 ar  
     9     5    17 1   
    10     6     7 ar  
    11     6    18 1   
    12     7     8 1   
    13     8     9 1   
    14     8    11 1   
    15     8    19 1   
    16     9    10 1   
    17     9    20 1   
    18     9    21 1   
    19    10    22 1   
    20    10    23 1   
    21    11    12 1   
    22    11    24 1   
    23    11    25 1   
    24    12    13 1   
    25    12    14 1   
@<TRIPOS>SUBSTRUCTURE
     1 2C0         1 TEMP              0 ****  ****    0 ROOT
