@<TRIPOS>MOLECULE
2C1
   49    50     1     0     0
SMALL
No Charge or Current Charge


@<TRIPOS>ATOM
      1 N3          39.4860    12.3420   -22.1250 ns         1 2C1      -0.591300
      2 C5          39.2490    11.0380   -21.8660 c          1 2C1       0.691100
      3 C6          39.7390     8.8380   -22.9760 ca         1 2C1       0.537900
      4 C7          40.2660     7.1590   -24.4680 ca         1 2C1       0.552900
      5 C8          36.3630    12.9580   -20.6220 cc         1 2C1       0.051000
      6 C10         34.8920    13.8540   -22.1790 cd         1 2C1      -0.155300
      7 N12         40.7710     6.7900   -25.7280 ns         1 2C1      -0.342900
      8 C13         35.0110    13.0890   -21.0410 cc         1 2C1      -0.127300
      9 C15         39.3050     7.9170   -22.0090 ca         1 2C1      -0.198000
     10 C28         41.5230     9.7960   -27.7990 c3         1 2C1       0.111300
     11 S1          39.0090    13.6580   -21.2220 sy         1 2C1       1.270300
     12 C2          37.2590    13.6130   -21.4260 cd         1 2C1      -0.498500
     13 S4          36.4660    14.4350   -22.7620 ss         1 2C1       0.295000
     14 N9          40.2150     8.4770   -24.1810 nb         1 2C1      -0.822000
     15 N11         39.7550    10.2280   -22.8440 ns         1 2C1      -0.328900
     16 C14         41.1900     7.5020   -26.8280 c          1 2C1       0.655100
     17 C16         39.8550     6.1690   -23.5670 ca         1 2C1      -0.223000
     18 O17         39.5440    14.8310   -21.9190 o          1 2C1      -0.527500
     19 O18         39.3350    13.3650   -19.8220 o          1 2C1      -0.527500
     20 C19         39.3640     6.5540   -22.3150 ca         1 2C1       0.083100
     21 O20         38.6520    10.6390   -20.8830 o          1 2C1      -0.573100
     22 O21         41.5950     6.9360   -27.8300 o          1 2C1      -0.633100
     23 N22         41.1270     8.8650   -26.7420 ns         1 2C1      -0.511900
     24 Br1         38.7920     5.2430   -21.0460 br         1 2C1      -0.073100
     25 C25         33.8870    12.4360   -20.2780 c3         1 2C1      -0.029800
     26 O26         31.8430    15.8050   -23.2140 os         1 2C1      -0.465000
     27 C27         33.0320    15.5510   -22.4460 c3         1 2C1       0.159600
     28 C29         31.1680    17.0290   -22.8780 c3         1 2C1       0.146900
     29 H1          39.9640    12.6200   -22.9640 hn         1 2C1       0.339500
     30 H2          36.6430    12.3810   -19.7420 ha         1 2C1       0.162000
     31 H3          40.8320     5.7890   -25.8490 hn         1 2C1       0.177000
     32 H4          38.9360     8.2360   -21.0430 ha         1 2C1       0.177000
     33 H5          41.3650    10.8270   -27.4560 h1         1 2C1       0.041367
     34 H6          42.5840     9.6530   -28.0390 h1         1 2C1       0.041367
     35 H7          40.9170     9.6160   -28.6960 h1         1 2C1       0.041367
     36 H8          40.2110    10.6970   -23.6110 hn         1 2C1       0.167000
     37 H9          39.9180     5.1200   -23.8390 ha         1 2C1       0.147000
     38 H10         40.7820     9.2230   -25.8550 hn         1 2C1       0.353500
     39 H11         32.8770    13.4240   -22.7980 hc         1 2C1       0.070200
     40 H12         33.8320    14.2790   -23.9970 hc         1 2C1       0.070200
     41 H13         34.2330    12.0250   -19.3230 hc         1 2C1       0.048367
     42 H14         33.0910    13.1580   -20.0610 hc         1 2C1       0.048367
     43 H15         33.4490    11.6150   -20.8590 hc         1 2C1       0.048367
     44 H16         32.7970    15.4860   -21.3750 h1         1 2C1       0.030200
     45 H17         33.7680    16.3520   -22.5920 h1         1 2C1       0.030200
     46 H18         30.2740    17.1560   -23.5010 h1         1 2C1       0.032700
     47 H19         30.8530    17.0250   -21.8260 h1         1 2C1       0.032700
     48 H20         31.8240    17.8940   -23.0410 h1         1 2C1       0.032700
     49 C23         33.6280    14.2130   -22.9220 c3         1 2C1      -0.022100
@<TRIPOS>BOND
     1     1     2 1   
     2     1    11 1   
     3     1    29 1   
     4     2    15 1   
     5     2    21 2   
     6     3     9 ar  
     7     3    14 ar  
     8     3    15 1   
     9     4     7 1   
    10     4    14 ar  
    11     4    17 ar  
    12     5     8 1   
    13     5    12 2   
    14     5    30 1   
    15     6     8 2   
    16     6    13 1   
    17     6    49 1   
    18     7    16 1   
    19     7    31 1   
    20     8    25 1   
    21     9    20 ar  
    22     9    32 1   
    23    10    23 1   
    24    10    33 1   
    25    10    34 1   
    26    10    35 1   
    27    11    12 1   
    28    11    18 2   
    29    11    19 2   
    30    12    13 1   
    31    15    36 1   
    32    16    22 2   
    33    16    23 1   
    34    17    20 ar  
    35    17    37 1   
    36    20    24 1   
    37    23    38 1   
    38    25    41 1   
    39    25    42 1   
    40    25    43 1   
    41    26    27 1   
    42    26    28 1   
    43    27    44 1   
    44    27    45 1   
    45    27    49 1   
    46    28    46 1   
    47    28    47 1   
    48    28    48 1   
    49    39    49 1   
    50    40    49 1   
@<TRIPOS>SUBSTRUCTURE
     1 2C1         1 TEMP              0 ****  ****    0 ROOT
