@<TRIPOS>MOLECULE
2C1
   49    50     1     0     0
SMALL
abcg2


@<TRIPOS>ATOM
      1 N3          39.6350    12.4400   -21.9660 ns         1 2C1      -0.591300
      2 C5          39.3030    11.0930   -21.8380 c          1 2C1       0.691100
      3 C6          39.6840     8.9630   -23.0540 ca         1 2C1       0.537900
      4 C7          40.1310     7.2610   -24.5390 ca         1 2C1       0.552900
      5 C8          36.3560    13.0440   -20.4020 cc         1 2C1       0.051000
      6 C10         34.9790    13.7150   -22.1450 cd         1 2C1      -0.155300
      7 N12         40.5710     6.8450   -25.7820 ns         1 2C1      -0.342900
      8 C13         35.0300    13.1190   -20.9020 cc         1 2C1      -0.127300
      9 C15         39.2360     8.0870   -22.0700 ca         1 2C1      -0.198000
     10 C28         41.6100     9.7130   -27.8730 c3         1 2C1       0.111300
     11 S1          38.9870    13.6540   -21.0190 sy         1 2C1       1.270300
     12 C2          37.2760    13.5940   -21.2560 cd         1 2C1      -0.498500
     13 S4          36.5410    14.1970   -22.6970 ss         1 2C1       0.295000
     14 N9          40.1200     8.5610   -24.2530 nb         1 2C1      -0.822000
     15 N11         39.7480    10.3470   -22.8970 ns         1 2C1      -0.328900
     16 C14         41.0440     7.5570   -26.8900 c          1 2C1       0.655100
     17 C16         39.7080     6.2860   -23.6220 ca         1 2C1      -0.223000
     18 O17         39.5140    14.8450   -21.6350 o          1 2C1      -0.527500
     19 O18         39.2670    13.3700   -19.6410 o          1 2C1      -0.527500
     20 C19         39.2700     6.7370   -22.3970 ca         1 2C1       0.083100
     21 O20         38.6910    10.6620   -20.8790 o          1 2C1      -0.573100
     22 O21         41.3600     6.9250   -27.9010 o          1 2C1      -0.633100
     23 N22         41.1260     8.8900   -26.7810 ns         1 2C1      -0.511900
     24 BR1         38.6940     5.4710   -21.0940 br         1 2C1      -0.073100
     25 C25         33.8320    12.6260   -20.1470 c3         1 2C1      -0.029800
     26 O26         31.9620    15.5410   -23.3370 os         1 2C1      -0.465000
     27 C27         33.1090    15.3310   -22.5310 c3         1 2C1       0.159600
     28 C29         31.2840    16.7430   -23.0080 c3         1 2C1       0.146900
     29 H1          40.0700    12.7850   -22.8120 hn         1 2C1       0.339500
     30 H2          36.6230    12.6000   -19.4560 ha         1 2C1       0.162000
     31 H3          40.5460     5.8510   -25.9530 hn         1 2C1       0.177000
     32 H4          38.8920     8.4420   -21.1160 ha         1 2C1       0.177000
     33 H5          41.5870    10.7510   -27.5480 h1         1 2C1       0.041367
     34 H6          42.6350     9.4500   -28.1430 h1         1 2C1       0.041367
     35 H7          40.9820     9.6050   -28.7590 h1         1 2C1       0.041367
     36 H8          40.1660    10.8220   -23.6840 hn         1 2C1       0.167000
     37 H9          39.7300     5.2360   -23.8750 ha         1 2C1       0.147000
     38 H10         40.8320     9.3050   -25.9040 hn         1 2C1       0.353500
     39 H11         33.0460    13.2120   -22.8600 hc         1 2C1       0.070200
     40 H12         34.0290    14.0950   -24.0230 hc         1 2C1       0.070200
     41 H13         34.1180    11.8420   -19.4450 hc         1 2C1       0.048367
     42 H14         33.3680    13.4340   -19.5750 hc         1 2C1       0.048367
     43 H15         33.0730    12.2240   -20.8200 hc         1 2C1       0.048367
     44 H16         32.8240    15.2800   -21.4730 h1         1 2C1       0.030200
     45 H17         33.8130    16.1650   -22.6490 h1         1 2C1       0.030200
     46 H18         30.4270    16.8260   -23.6740 h1         1 2C1       0.032700
     47 H19         30.9360    16.7270   -21.9680 h1         1 2C1       0.032700
     48 H20         31.9360    17.6130   -23.1460 h1         1 2C1       0.032700
     49 C23         33.7680    14.0240   -22.9660 c3         1 2C1      -0.022100
@<TRIPOS>BOND
     1     1     2 1   
     2     1    11 1   
     3     1    29 1   
     4     2    15 1   
     5     2    21 2   
     6     3     9 ar  
     7     3    14 ar  
     8     3    15 1   
     9     4     7 1   
    10     4    14 ar  
    11     4    17 ar  
    12     5     8 1   
    13     5    12 2   
    14     5    30 1   
    15     6     8 2   
    16     6    13 1   
    17     6    49 1   
    18     7    16 1   
    19     7    31 1   
    20     8    25 1   
    21     9    20 ar  
    22     9    32 1   
    23    10    23 1   
    24    10    33 1   
    25    10    34 1   
    26    10    35 1   
    27    11    12 1   
    28    11    18 2   
    29    11    19 2   
    30    12    13 1   
    31    15    36 1   
    32    16    22 2   
    33    16    23 1   
    34    17    20 ar  
    35    17    37 1   
    36    20    24 1   
    37    23    38 1   
    38    25    41 1   
    39    25    42 1   
    40    25    43 1   
    41    26    27 1   
    42    26    28 1   
    43    27    44 1   
    44    27    45 1   
    45    27    49 1   
    46    28    46 1   
    47    28    47 1   
    48    28    48 1   
    49    39    49 1   
    50    40    49 1   
@<TRIPOS>SUBSTRUCTURE
     1 2C1         1 TEMP              0 ****  ****    0 ROOT
