@<TRIPOS>MOLECULE
2C2
   21    22     1     0     0
SMALL
No Charge or Current Charge


@<TRIPOS>ATOM
      1 O10          3.4660     2.4320     5.5520 o          1 2C2      -0.689500
      2 C10          3.4060     1.2640     5.9260 c          1 2C2       0.720000
      3 O11          3.3640     0.9590     7.1160 o          1 2C2      -0.689500
      4 C9           2.9580     0.1280     4.8840 c6         1 2C2       0.263200
      5 O8           2.1540    -0.8620     5.5560 oh         1 2C2      -0.693000
      6 O2           2.1200     0.6720     3.8220 os         1 2C2      -0.340100
      7 C2           2.0340     0.0370     2.5960 ca         1 2C2       0.184100
      8 C1           3.0550    -0.8330     2.1600 ca         1 2C2      -0.118800
      9 C7           4.2120    -1.0570     3.0510 ce         1 2C2      -0.192200
     10 C8           4.1840    -0.5890     4.3130 c2         1 2C2      -0.163200
     11 C3           0.9420     0.3130     1.7550 ca         1 2C2      -0.158000
     12 C4           0.8530    -0.2980     0.4920 ca         1 2C2      -0.096000
     13 C5           1.8660    -1.1740     0.0640 ca         1 2C2      -0.174000
     14 C6           2.9700    -1.4400     0.8940 ca         1 2C2      -0.080000
     15 HO8          2.3270    -0.6810     6.5110 ho         1 2C2       0.488000
     16 H7           5.0710    -1.5950     2.6460 ha         1 2C2       0.161000
     17 H8           5.0270    -0.7320     4.9900 ha         1 2C2       0.183000
     18 H3           0.1650     0.9970     2.0860 ha         1 2C2       0.119000
     19 H4           0.0050    -0.0890    -0.1560 ha         1 2C2       0.091000
     20 H5           1.7990    -1.6440    -0.9150 ha         1 2C2       0.092000
     21 H6           3.7560    -2.1100     0.5530 ha         1 2C2       0.094000
@<TRIPOS>BOND
     1     1     2 1   
     2     2     3 1   
     3     2     4 1   
     4     4     5 1   
     5     4     6 1   
     6     4    10 1   
     7     5    15 1   
     8     6     7 1   
     9     7     8 ar  
    10     7    11 ar  
    11     8     9 1   
    12     8    14 ar  
    13     9    10 2   
    14     9    16 1   
    15    10    17 1   
    16    11    12 ar  
    17    11    18 1   
    18    12    13 ar  
    19    12    19 1   
    20    13    14 ar  
    21    13    20 1   
    22    14    21 1   
@<TRIPOS>SUBSTRUCTURE
     1 2C2         1 TEMP              0 ****  ****    0 ROOT
