@<TRIPOS>MOLECULE
2C2
   21    22     1     0     0
SMALL
bcc


@<TRIPOS>ATOM
      1 O10          4.0750     2.0790     5.4500 o          1 2C2      -0.794800
      2 C10          3.2910     1.2090     5.8400 c          1 2C2       0.930600
      3 O11          2.6790     1.1310     6.9250 o          1 2C2      -0.794800
      4 C9           2.9990     0.0320     4.8620 c6         1 2C2       0.216800
      5 O8           2.2890    -0.9490     5.5220 oh         1 2C2      -0.630800
      6 O2           2.1880     0.6250     3.8420 os         1 2C2      -0.316900
      7 C2           2.0790     0.0140     2.6460 ca         1 2C2       0.184100
      8 C1           3.1040    -0.8070     2.1650 ca         1 2C2      -0.118800
      9 C7           4.2670    -0.9890     3.0130 ce         1 2C2      -0.142200
     10 C8           4.2440    -0.5580     4.2740 c2         1 2C2      -0.113200
     11 C3           0.9500     0.2590     1.8740 ca         1 2C2      -0.176000
     12 C4           0.8400    -0.3200     0.6170 ca         1 2C2      -0.114000
     13 C5           1.8470    -1.1450     0.1280 ca         1 2C2      -0.192000
     14 C6           2.9730    -1.3790     0.9010 ca         1 2C2      -0.098000
     15 HO8          2.0230    -0.5080     6.3560 ho         1 2C2       0.449000
     16 H7           5.1430    -1.4750     2.6000 ha         1 2C2       0.111000
     17 H8           5.0940    -0.6880     4.9320 ha         1 2C2       0.133000
     18 H3           0.1670     0.9030     2.2550 ha         1 2C2       0.137000
     19 H4          -0.0420    -0.1280     0.0200 ha         1 2C2       0.109000
     20 H5           1.7550    -1.5960    -0.8510 ha         1 2C2       0.110000
     21 H6           3.7680    -2.0130     0.5260 ha         1 2C2       0.112000
@<TRIPOS>BOND
     1     1     2 1   
     2     2     3 1   
     3     2     4 1   
     4     4     5 1   
     5     4     6 1   
     6     4    10 1   
     7     5    15 1   
     8     6     7 1   
     9     7     8 ar  
    10     7    11 ar  
    11     8     9 1   
    12     8    14 ar  
    13     9    10 2   
    14     9    16 1   
    15    10    17 1   
    16    11    12 ar  
    17    11    18 1   
    18    12    13 ar  
    19    12    19 1   
    20    13    14 ar  
    21    13    20 1   
    22    14    21 1   
@<TRIPOS>SUBSTRUCTURE
     1 2C2         1 TEMP              0 ****  ****    0 ROOT
