@<TRIPOS>MOLECULE
2C3
   59    62     1     0     0
SMALL
abcg2


@<TRIPOS>ATOM
      1 N3           7.9160    -2.6400     0.7240 nb         1 2C3      -0.275000
      2 C4           8.4700    -1.5140     1.1780 ca         1 2C3       0.415300
      3 C6          10.4400    -2.7700     1.5340 c3         1 2C3       0.163900
      4 C8           6.6420    -0.2620     0.8670 ca         1 2C3       0.305900
      5 C10          4.6930     1.1540     0.5560 c          1 2C3       0.590200
      6 C13          4.5940    -1.2100    -0.0340 cc         1 2C3       0.023800
      7 C17          0.6230     1.5540    -0.6320 ca         1 2C3      -0.016000
      8 C20         -2.0000     2.2520    -1.3190 ca         1 2C3      -0.104000
      9 C21         -0.9770     3.1690    -1.4790 ca         1 2C3      -0.094000
     10 C22          0.3210     2.8180    -1.1500 ca         1 2C3       0.092000
     11 C28         -5.9670    -0.7320    -2.3320 c3         1 2C3      -0.094400
     12 O11          4.2310     2.2830     0.6630 o          1 2C3      -0.549000
     13 N9           5.9970     0.9270     0.9330 ns         1 2C3      -0.443400
     14 N7           7.8980    -0.3250     1.2690 nb         1 2C3      -0.252000
     15 O5           9.7170    -1.5410     1.5900 os         1 2C3      -0.423300
     16 C2           6.6650    -2.5600     0.3280 ca         1 2C3       0.222900
     17 C1           5.9390    -1.3710     0.3720 ca         1 2C3      -0.302800
     18 C12          3.9670    -0.0070     0.0450 cd         1 2C3      -0.297400
     19 C14          2.5430     0.0560    -0.4060 c          1 2C3       0.634300
     20 O15          1.9950    -0.9320    -0.8640 o          1 2C3      -0.594100
     21 N16          1.9370     1.2600    -0.2700 ns         1 2C3      -0.151000
     22 C18         -0.4240     0.6560    -0.4520 ca         1 2C3      -0.064000
     23 CL2          1.5840     3.9740    -1.3820 cl         1 2C3      -0.186000
     24 C19         -1.7250     0.9860    -0.8100 ca         1 2C3      -0.128600
     25 O25         -2.6290    -0.9300     0.2550 o          1 2C3      -0.587100
     26 N26         -3.9010     0.0620    -1.3110 ns         1 2C3      -0.507900
     27 C27         -5.0110    -0.8530    -1.1460 c3         1 2C3       0.165000
     28 N30         -6.3300    -1.0390    -4.7250 n8         1 2C3      -1.000200
     29 C31         -5.7470    -0.6150     0.1550 ca         1 2C3      -0.082300
     30 C32         -6.2230    -1.7040     0.8750 ca         1 2C3      -0.087000
     31 C33         -6.9440    -1.4950     2.0400 ca         1 2C3       0.121000
     32 CL3         -7.5280    -2.8660     2.9290 cl         1 2C3      -0.207000
     33 C35         -7.2010    -0.2180     2.5130 ca         1 2C3      -0.100000
     34 C36         -6.7210     0.8640     1.7890 ca         1 2C3      -0.103000
     35 C37         -6.0030     0.6710     0.6180 ca         1 2C3      -0.094000
     36 H1           9.9690    -3.5380     2.1460 h1         1 2C3       0.057367
     37 H2          10.5320    -3.1320     0.5110 h1         1 2C3       0.057367
     38 H3          11.4260    -2.5450     1.9300 h1         1 2C3       0.057367
     39 H4           4.0600    -2.0710    -0.4140 ha         1 2C3       0.221000
     40 H5          -3.0060     2.5600    -1.5700 ha         1 2C3       0.115000
     41 H6          -1.1880     4.1570    -1.8630 ha         1 2C3       0.131000
     42 H7          -6.8130    -1.3970    -2.1390 hc         1 2C3       0.060200
     43 H8          -6.3740     0.2830    -2.3840 hc         1 2C3       0.060200
     44 H9           6.5150     1.7240     1.2860 hn         1 2C3       0.354500
     45 H10          6.2010    -3.4680    -0.0430 h4         1 2C3       0.037100
     46 H11          2.5340     2.0190     0.0520 hn         1 2C3       0.204000
     47 H12         -0.2280    -0.3130    -0.0190 ha         1 2C3       0.161000
     48 H13         -3.9590     0.7550    -2.0390 hn         1 2C3       0.320500
     49 H14         -4.6140    -1.8730    -1.1290 h1         1 2C3       0.072700
     50 H15         -4.5350    -0.4050    -3.9150 h1         1 2C3       0.030200
     51 H16         -4.8580    -2.0930    -3.5690 h1         1 2C3       0.030200
     52 H17         -5.8860    -1.2070    -5.6180 hn         1 2C3       0.395500
     53 H18         -6.9990    -1.7900    -4.6050 hn         1 2C3       0.395500
     54 H20         -6.0260    -2.7120     0.5300 ha         1 2C3       0.129000
     55 H21         -7.7590    -0.0690     3.4270 ha         1 2C3       0.129000
     56 H22         -6.9120     1.8670     2.1460 ha         1 2C3       0.117000
     57 H23         -5.6320     1.5290     0.0710 ha         1 2C3       0.114000
     58 C24         -2.7850    -0.0420    -0.5700 c          1 2C3       0.612700
     59 C29         -5.3350    -1.1070    -3.6670 c3         1 2C3       0.150800
@<TRIPOS>BOND
     1     1     2 ar  
     2     1    16 ar  
     3     2    14 ar  
     4     2    15 1   
     5     3    15 1   
     6     3    36 1   
     7     3    37 1   
     8     3    38 1   
     9     4    13 1   
    10     4    14 ar  
    11     4    17 ar  
    12     5    12 2   
    13     5    13 1   
    14     5    18 1   
    15     6    17 1   
    16     6    18 2   
    17     6    39 1   
    18     7    10 ar  
    19     7    21 1   
    20     7    22 ar  
    21     8     9 ar  
    22     8    24 ar  
    23     8    40 1   
    24     9    10 ar  
    25     9    41 1   
    26    10    23 1   
    27    11    27 1   
    28    11    42 1   
    29    11    43 1   
    30    11    59 1   
    31    13    44 1   
    32    16    17 ar  
    33    16    45 1   
    34    18    19 1   
    35    19    20 2   
    36    19    21 1   
    37    21    46 1   
    38    22    24 ar  
    39    22    47 1   
    40    24    58 1   
    41    25    58 2   
    42    26    27 1   
    43    26    48 1   
    44    26    58 1   
    45    27    29 1   
    46    27    49 1   
    47    28    52 1   
    48    28    53 1   
    49    28    59 1   
    50    29    30 ar  
    51    29    35 ar  
    52    30    31 ar  
    53    30    54 1   
    54    31    32 1   
    55    31    33 ar  
    56    33    34 ar  
    57    33    55 1   
    58    34    35 ar  
    59    34    56 1   
    60    35    57 1   
    61    50    59 1   
    62    51    59 1   
@<TRIPOS>SUBSTRUCTURE
     1 2C3         1 TEMP              0 ****  ****    0 ROOT
