@<TRIPOS>MOLECULE
2C3
   59    62     1     0     0
SMALL
No Charge or Current Charge


@<TRIPOS>ATOM
      1 N3           8.4020    -2.5240     0.0380 nb         1 2C3      -0.275000
      2 C4           8.8980    -1.4280     0.6640 ca         1 2C3       0.415300
      3 C6          11.1130    -2.5030     0.7180 c3         1 2C3       0.163900
      4 C8           6.8830    -0.3590     0.6570 ca         1 2C3       0.305900
      5 C10          4.7990     0.9240     0.7330 c          1 2C3       0.590200
      6 C13          4.8490    -1.3750    -0.3120 cc         1 2C3       0.023800
      7 C17          0.6080     1.3080    -0.1150 ca         1 2C3      -0.016000
      8 C20         -2.0960     2.1100    -0.3290 ca         1 2C3      -0.104000
      9 C21         -1.0850     3.0670    -0.1490 ca         1 2C3      -0.094000
     10 C22          0.2560     2.6720    -0.0390 ca         1 2C3       0.092000
     11 C28         -5.7090    -0.8950    -2.3440 c3         1 2C3      -0.094400
     12 O11          4.2560     1.9580     1.0800 o          1 2C3      -0.549000
     13 N9           6.1280     0.7510     0.9810 ns         1 2C3      -0.443400
     14 N7           8.1790    -0.3330     0.9890 nb         1 2C3      -0.252000
     15 O5          10.2330    -1.3970     1.0080 os         1 2C3      -0.423300
     16 C2           7.0930    -2.5220    -0.2840 ca         1 2C3       0.222900
     17 C1           6.2720    -1.4240     0.0170 ca         1 2C3      -0.302800
     18 C12          4.1330    -0.2260     0.0370 cd         1 2C3      -0.297400
     19 C14          2.6780    -0.2030    -0.3140 c          1 2C3       0.634300
     20 O15          2.1400    -1.1520    -0.8720 o          1 2C3      -0.594100
     21 N16          1.9830     0.9530     0.0110 ns         1 2C3      -0.151000
     22 C18         -0.4170     0.3490    -0.2850 ca         1 2C3      -0.064000
     23 Cl2          1.4880     3.9140     0.1830 cl         1 2C3      -0.186000
     24 C19         -1.7740     0.7330    -0.3950 ca         1 2C3      -0.128600
     25 O25         -2.5580    -1.5260    -0.6290 o          1 2C3      -0.587100
     26 N26         -4.1390     0.1000    -0.6770 ns         1 2C3      -0.507900
     27 C27         -5.3090    -0.7620    -0.8540 c3         1 2C3       0.165000
     28 N30         -5.1200    -1.7570    -4.6080 n8         1 2C3      -1.000200
     29 C31         -6.4590    -0.2460     0.0090 ca         1 2C3      -0.082300
     30 C32         -6.9020    -1.0010     1.1150 ca         1 2C3      -0.087000
     31 C33         -7.9540    -0.5330     1.9200 ca         1 2C3       0.121000
     32 Cl3         -8.4970    -1.4870     3.2940 cl         1 2C3      -0.207000
     33 C35         -8.5730     0.6940     1.6320 ca         1 2C3      -0.100000
     34 C36         -8.1350     1.4560     0.5360 ca         1 2C3      -0.103000
     35 C37         -7.0830     0.9900    -0.2710 ca         1 2C3      -0.094000
     36 H1          10.7710    -3.4180     1.2180 h1         1 2C3       0.057367
     37 H2          11.1610    -2.6930    -0.3620 h1         1 2C3       0.057367
     38 H3          12.1290    -2.2840     1.0690 h1         1 2C3       0.057367
     39 H4           4.3670    -2.2130    -0.8170 ha         1 2C3       0.221000
     40 H5          -3.1220     2.4590    -0.4090 ha         1 2C3       0.115000
     41 H6          -1.3420     4.1220    -0.0940 ha         1 2C3       0.131000
     42 H7          -6.6470    -1.4610    -2.3990 hc         1 2C3       0.060200
     43 H8          -5.9120     0.0980    -2.7620 hc         1 2C3       0.060200
     44 H9           6.6040     1.5090     1.4490 hn         1 2C3       0.354500
     45 H10          6.7060    -3.4070    -0.7860 h4         1 2C3       0.037100
     46 H11          2.5580     1.6800     0.4190 hn         1 2C3       0.204000
     47 H12         -0.1730    -0.7090    -0.3160 ha         1 2C3       0.161000
     48 H13         -4.2920     1.0960    -0.6070 hn         1 2C3       0.320500
     49 H14         -5.0520    -1.7680    -0.4950 h1         1 2C3       0.072700
     50 H15         -3.7230    -1.0130    -3.2270 h1         1 2C3       0.030200
     51 H16         -4.4320    -2.5950    -2.8050 h1         1 2C3       0.030200
     52 H17         -4.4110    -2.2750    -5.1430 hn         1 2C3       0.395500
     53 H18         -5.9330    -2.3840    -4.6200 hn         1 2C3       0.395500
     54 H20         -6.4320    -1.9520     1.3540 ha         1 2C3       0.129000
     55 H21         -9.3860     1.0520     2.2570 ha         1 2C3       0.129000
     56 H22         -8.6110     2.4090     0.3120 ha         1 2C3       0.117000
     57 H23         -6.7520     1.5940    -1.1130 ha         1 2C3       0.114000
     58 C24         -2.8360    -0.3360    -0.5760 c          1 2C3       0.612700
     59 C29         -4.6520    -1.6010    -3.2170 c3         1 2C3       0.150800
@<TRIPOS>BOND
     1     1     2 ar  
     2     1    16 ar  
     3     2    14 ar  
     4     2    15 1   
     5     3    15 1   
     6     3    36 1   
     7     3    37 1   
     8     3    38 1   
     9     4    13 1   
    10     4    14 ar  
    11     4    17 ar  
    12     5    12 2   
    13     5    13 1   
    14     5    18 1   
    15     6    17 1   
    16     6    18 2   
    17     6    39 1   
    18     7    10 ar  
    19     7    21 1   
    20     7    22 ar  
    21     8     9 ar  
    22     8    24 ar  
    23     8    40 1   
    24     9    10 ar  
    25     9    41 1   
    26    10    23 1   
    27    11    27 1   
    28    11    42 1   
    29    11    43 1   
    30    11    59 1   
    31    13    44 1   
    32    16    17 ar  
    33    16    45 1   
    34    18    19 1   
    35    19    20 2   
    36    19    21 1   
    37    21    46 1   
    38    22    24 ar  
    39    22    47 1   
    40    24    58 1   
    41    25    58 2   
    42    26    27 1   
    43    26    48 1   
    44    26    58 1   
    45    27    29 1   
    46    27    49 1   
    47    28    52 1   
    48    28    53 1   
    49    28    59 1   
    50    29    30 ar  
    51    29    35 ar  
    52    30    31 ar  
    53    30    54 1   
    54    31    32 1   
    55    31    33 ar  
    56    33    34 ar  
    57    33    55 1   
    58    34    35 ar  
    59    34    56 1   
    60    35    57 1   
    61    50    59 1   
    62    51    59 1   
@<TRIPOS>SUBSTRUCTURE
     1 2C3         1 TEMP              0 ****  ****    0 ROOT
