@<TRIPOS>MOLECULE
2C4
   40    42     1     0     0
SMALL
No Charge or Current Charge


@<TRIPOS>ATOM
      1 N3           6.0090    -1.5960     0.2880 nb         1 2C4      -0.275000
      2 C4           6.2990    -0.3220    -0.0750 ca         1 2C4       0.415300
      3 C6           8.6950    -0.8890    -0.0200 c3         1 2C4       0.163900
      4 C8           4.1030     0.2900    -0.1500 ca         1 2C4       0.304900
      5 C10          1.8000     1.1080    -0.2790 c          1 2C4       0.589200
      6 C13          2.2720    -1.2890     0.3630 cc         1 2C4       0.023800
      7 C17         -2.4290     0.4560     0.0720 ca         1 2C4      -0.020000
      8 C20         -5.2530     0.6310     0.0670 ca         1 2C4      -0.072000
      9 C21         -4.4720     1.7920     0.1750 ca         1 2C4      -0.103000
     10 C22         -3.0720     1.7080     0.1740 ca         1 2C4       0.096000
     11 O11          1.0710     2.0560    -0.5140 o          1 2C4      -0.549000
     12 N9           3.1510     1.2620    -0.3780 ns         1 2C4      -0.442400
     13 N7           5.3850     0.6440    -0.3020 nb         1 2C4      -0.253000
     14 O5           7.6190     0.0470    -0.2330 os         1 2C4      -0.423300
     15 C2           4.7090    -1.9240     0.4340 ca         1 2C4       0.223900
     16 C1           3.6930    -0.9810     0.2170 ca         1 2C4      -0.303800
     17 C12          1.3500    -0.2650     0.1220 cd         1 2C4      -0.297400
     18 C14         -0.0980    -0.6090     0.2800 c          1 2C4       0.632300
     19 O15         -0.4570    -1.7370     0.5960 o          1 2C4      -0.592100
     20 N16         -1.0040     0.4200     0.0670 ns         1 2C4      -0.149000
     21 C18         -3.2230    -0.7090    -0.0480 ca         1 2C4      -0.069000
     22 Cl2         -2.1360     3.1950     0.3150 cl         1 2C4      -0.186000
     23 C19         -4.6350    -0.6350    -0.0490 ca         1 2C4      -0.120600
     24 O25         -4.9500    -3.0120    -0.2890 o          1 2C4      -0.481000
     25 O26         -6.8120    -1.6870    -0.1640 os         1 2C4      -0.440100
     26 C27         -7.6820    -2.8280    -0.2820 c3         1 2C4       0.153900
     27 H1           8.6880    -1.2690     1.0100 h1         1 2C4       0.057367
     28 H2           8.6150    -1.7420    -0.7070 h1         1 2C4       0.057367
     29 H3           9.6640    -0.4040    -0.1950 h1         1 2C4       0.057367
     30 H4           1.9470    -2.2890     0.6530 ha         1 2C4       0.221000
     31 H5          -6.3370     0.7260     0.0690 ha         1 2C4       0.135000
     32 H6          -4.9550     2.7630     0.2590 ha         1 2C4       0.133000
     33 H7           3.4840     2.1770    -0.6470 hn         1 2C4       0.354500
     34 H8           4.4880    -2.9500     0.7260 h4         1 2C4       0.037100
     35 H9          -0.5730     1.3140    -0.1360 hn         1 2C4       0.204000
     36 H10         -2.7540    -1.6830    -0.1580 ha         1 2C4       0.163000
     37 H11         -7.5100    -3.3560    -1.2300 h1         1 2C4       0.049367
     38 H12         -7.5180    -3.5330     0.5430 h1         1 2C4       0.049367
     39 H13         -8.7320    -2.5120    -0.2550 h1         1 2C4       0.049367
     40 C24         -5.4550    -1.9010    -0.1790 c          1 2C4       0.605700
@<TRIPOS>BOND
     1     1     2 ar  
     2     1    15 ar  
     3     2    13 ar  
     4     2    14 1   
     5     3    14 1   
     6     3    27 1   
     7     3    28 1   
     8     3    29 1   
     9     4    12 1   
    10     4    13 ar  
    11     4    16 ar  
    12     5    11 2   
    13     5    12 1   
    14     5    17 1   
    15     6    16 1   
    16     6    17 2   
    17     6    30 1   
    18     7    10 ar  
    19     7    20 1   
    20     7    21 ar  
    21     8     9 ar  
    22     8    23 ar  
    23     8    31 1   
    24     9    10 ar  
    25     9    32 1   
    26    10    22 1   
    27    12    33 1   
    28    15    16 ar  
    29    15    34 1   
    30    17    18 1   
    31    18    19 2   
    32    18    20 1   
    33    20    35 1   
    34    21    23 ar  
    35    21    36 1   
    36    23    40 1   
    37    24    40 2   
    38    25    26 1   
    39    25    40 1   
    40    26    37 1   
    41    26    38 1   
    42    26    39 1   
@<TRIPOS>SUBSTRUCTURE
     1 2C4         1 TEMP              0 ****  ****    0 ROOT
