@<TRIPOS>MOLECULE
2C4
   40    42     1     0     0
SMALL
abcg2


@<TRIPOS>ATOM
      1 N3           5.8450    -1.6300     0.3450 nb         1 2C4      -0.275000
      2 C4           6.1710    -0.4130    -0.0970 ca         1 2C4       0.415300
      3 C6           8.4280    -1.1030     0.0290 c3         1 2C4       0.163900
      4 C8           4.0580     0.3130    -0.2330 ca         1 2C4       0.304900
      5 C10          1.7920     1.1670    -0.4000 c          1 2C4       0.589200
      6 C13          2.1870    -1.1100     0.3750 cc         1 2C4       0.023800
      7 C17         -2.3940     0.5330     0.0450 ca         1 2C4      -0.020000
      8 C20         -5.1970     0.5770     0.2290 ca         1 2C4      -0.072000
      9 C21         -4.4730     1.7460     0.3790 ca         1 2C4      -0.103000
     10 C22         -3.0920     1.7210     0.2920 ca         1 2C4       0.096000
     11 O11          1.0850     2.1260    -0.6900 o          1 2C4      -0.549000
     12 N9           3.1580     1.2810    -0.5210 ns         1 2C4      -0.442400
     13 N7           5.3420     0.5740    -0.3960 nb         1 2C4      -0.253000
     14 O5           7.4390    -0.1180    -0.2670 os         1 2C4      -0.423300
     15 C2           4.5630    -1.8730     0.5040 ca         1 2C4       0.223900
     16 C1           3.5800    -0.9230     0.2290 ca         1 2C4      -0.303800
     17 C12          1.3010    -0.1240     0.0790 cd         1 2C4      -0.297400
     18 C14         -0.1500    -0.4250     0.2690 c          1 2C4       0.632300
     19 O15         -0.5050    -1.5080     0.7020 o          1 2C4      -0.592100
     20 N16         -1.0070     0.5700    -0.0670 ns         1 2C4      -0.149000
     21 C18         -3.1390    -0.6320    -0.1170 ca         1 2C4      -0.069000
     22 CL2         -2.2210     3.2000     0.4980 cl         1 2C4      -0.186000
     23 C19         -4.5250    -0.6160    -0.0210 ca         1 2C4      -0.120600
     24 O25         -4.6790    -2.9620    -0.3850 o          1 2C4      -0.481000
     25 O26         -6.5520    -1.7710    -0.1650 os         1 2C4      -0.440100
     26 C27         -7.3450    -2.9450    -0.3410 c3         1 2C4       0.153900
     27 H1           8.3820    -1.4150     1.0720 h1         1 2C4       0.057367
     28 H2           8.3230    -1.9770    -0.6120 h1         1 2C4       0.057367
     29 H3           9.3830    -0.6220    -0.1650 h1         1 2C4       0.057367
     30 H4           1.8250    -2.0660     0.7330 ha         1 2C4       0.221000
     31 H5          -6.2730     0.6140     0.3070 ha         1 2C4       0.135000
     32 H6          -4.9830     2.6790     0.5730 ha         1 2C4       0.133000
     33 H7           3.5140     2.1700    -0.8540 hn         1 2C4       0.354500
     34 H8           4.2820    -2.8570     0.8640 h4         1 2C4       0.037100
     35 H9          -0.5690     1.4440    -0.3560 hn         1 2C4       0.204000
     36 H10         -2.6360    -1.5600    -0.3360 ha         1 2C4       0.163000
     37 H11         -7.1520    -3.4130    -1.3060 h1         1 2C4       0.049367
     38 H12         -7.1640    -3.6680     0.4540 h1         1 2C4       0.049367
     39 H13         -8.3780    -2.6140    -0.3000 h1         1 2C4       0.049367
     40 C24         -5.2390    -1.9070    -0.2090 c          1 2C4       0.605700
@<TRIPOS>BOND
     1     1     2 ar  
     2     1    15 ar  
     3     2    13 ar  
     4     2    14 1   
     5     3    14 1   
     6     3    27 1   
     7     3    28 1   
     8     3    29 1   
     9     4    12 1   
    10     4    13 ar  
    11     4    16 ar  
    12     5    11 2   
    13     5    12 1   
    14     5    17 1   
    15     6    16 1   
    16     6    17 2   
    17     6    30 1   
    18     7    10 ar  
    19     7    20 1   
    20     7    21 ar  
    21     8     9 ar  
    22     8    23 ar  
    23     8    31 1   
    24     9    10 ar  
    25     9    32 1   
    26    10    22 1   
    27    12    33 1   
    28    15    16 ar  
    29    15    34 1   
    30    17    18 1   
    31    18    19 2   
    32    18    20 1   
    33    20    35 1   
    34    21    23 ar  
    35    21    36 1   
    36    23    40 1   
    37    24    40 2   
    38    25    26 1   
    39    25    40 1   
    40    26    37 1   
    41    26    38 1   
    42    26    39 1   
@<TRIPOS>SUBSTRUCTURE
     1 2C4         1 TEMP              0 ****  ****    0 ROOT
