@<TRIPOS>MOLECULE
2C5
   50    53     1     0     0
SMALL
abcg2


@<TRIPOS>ATOM
      1 O2          -0.8030     0.3530     0.2850 os         1 2C5      -0.459000
      2 C38         -2.0520     0.3260     0.9270 c3         1 2C5       0.299900
      3 C40         -3.1200     0.1000    -0.1250 ca         1 2C5      -0.066300
      4 C43         -4.4440    -0.0270     0.2920 ca         1 2C5      -0.099500
      5 C44         -5.4570    -0.2450    -0.6200 ca         1 2C5      -0.075000
      6 C45         -5.1490    -0.3360    -1.9780 ca         1 2C5      -0.014000
      7 C46         -3.8300    -0.2120    -2.4060 ca         1 2C5      -0.075000
      8 C47         -2.8210     0.0020    -1.4800 ca         1 2C5      -0.099500
      9 C52          1.5750    -4.6060     0.7940 ca         1 2C5      -0.090000
     10 C53          2.7850    -4.0060     1.1070 ca         1 2C5       0.117000
     11 CL1          4.0250    -4.9370     1.8790 cl         1 2C5      -0.192000
     12 C65         -6.1880    -0.5590    -2.9300 cg         1 2C5       0.321000
     13 C7           3.0280    -2.6730     0.8180 ca         1 2C5      -0.091000
     14 N1          -7.0270    -0.7460    -3.6970 n1         1 2C5      -0.447000
     15 C2           0.5940    -3.8430     0.1770 ca         1 2C5      -0.103000
     16 C3           2.0350    -1.9140     0.2030 cp         1 2C5      -0.044000
     17 C4           0.8160    -2.5070    -0.1190 ca         1 2C5      -0.089000
     18 C1           0.3050     0.3800     1.1570 c3         1 2C5       0.106300
     19 N3          -2.8320     3.0020     3.3680 nc         1 2C5      -0.671000
     20 C10         -2.6720     1.6890     3.0430 cc         1 2C5       0.244900
     21 C12         -2.3100     1.5590     1.7310 cd         1 2C5      -0.265300
     22 N4          -2.2430     2.8400     1.2450 na         1 2C5      -0.138500
     23 C5          -2.5590     3.6590     2.2690 cd         1 2C5       0.398400
     24 C15         -1.8260     3.2700    -0.0740 c3         1 2C5       0.052900
     25 N2           1.7680     1.8220    -0.0580 nb         1 2C5      -0.666000
     26 C11          1.5150     0.5610     0.2880 ca         1 2C5       0.394300
     27 C13          2.3140    -0.5030    -0.1380 cp         1 2C5      -0.067000
     28 C14          3.4230    -0.1960    -0.9190 ca         1 2C5      -0.027000
     29 C17          3.6820     1.1200    -1.2710 ca         1 2C5      -0.050000
     30 C6           2.7940     2.0950    -0.8110 ca         1 2C5       0.474000
     31 C9           4.8050     1.4540    -2.0790 cg         1 2C5       0.322000
     32 N5           5.7210     1.7100    -2.7260 n1         1 2C5      -0.417000
     33 CL2          3.0520     3.7430    -1.2330 cl         1 2C5      -0.131000
     34 HC38        -2.1030    -0.5170     1.6330 h1         1 2C5       0.059700
     35 HC43        -4.6900     0.0460     1.3450 ha         1 2C5       0.131000
     36 HC44        -6.4810    -0.3440    -0.2860 ha         1 2C5       0.128500
     37 HC46        -3.5910    -0.2820    -3.4590 ha         1 2C5       0.128500
     38 HC47        -1.8030     0.0950    -1.8290 ha         1 2C5       0.131000
     39 HC52         1.4010    -5.6470     1.0260 ha         1 2C5       0.134000
     40 HC7          3.9760    -2.2230     1.0830 ha         1 2C5       0.133000
     41 HC2         -0.3520    -4.3000    -0.0800 ha         1 2C5       0.125000
     42 HC4          0.0460    -1.9340    -0.6170 ha         1 2C5       0.134000
     43 HC11         0.2460     1.2220     1.8530 h1         1 2C5       0.059700
     44 HC12         0.3670    -0.5400     1.7490 h1         1 2C5       0.059700
     45 HC10        -2.8280     0.8940     3.7580 h4         1 2C5       0.035100
     46 HC5         -2.5710     4.7330     2.1530 h5         1 2C5       0.056100
     47 H151        -0.7670     3.0760    -0.2280 h1         1 2C5       0.061700
     48 H152        -2.3960     2.7600    -0.8470 h1         1 2C5       0.061700
     49 H153        -2.0070     4.3380    -0.1630 h1         1 2C5       0.061700
     50 HC14         4.0790    -0.9830    -1.2680 ha         1 2C5       0.143000
@<TRIPOS>BOND
     1     1     2 1   
     2     1    18 1   
     3     2     3 1   
     4     2    21 1   
     5     2    34 1   
     6     3     4 ar  
     7     3     8 ar  
     8     4     5 ar  
     9     4    35 1   
    10     5     6 ar  
    11     5    36 1   
    12     6     7 ar  
    13     6    12 1   
    14     7     8 ar  
    15     7    37 1   
    16     8    38 1   
    17     9    10 ar  
    18     9    15 ar  
    19     9    39 1   
    20    10    11 1   
    21    10    13 ar  
    22    12    14 3   
    23    13    16 ar  
    24    13    40 1   
    25    15    17 ar  
    26    15    41 1   
    27    16    17 ar  
    28    16    27 1   
    29    17    42 1   
    30    18    26 1   
    31    18    43 1   
    32    18    44 1   
    33    19    20 1   
    34    19    23 2   
    35    20    21 2   
    36    20    45 1   
    37    21    22 1   
    38    22    23 1   
    39    22    24 1   
    40    23    46 1   
    41    24    47 1   
    42    24    48 1   
    43    24    49 1   
    44    25    26 ar  
    45    25    30 ar  
    46    26    27 ar  
    47    27    28 ar  
    48    28    29 ar  
    49    28    50 1   
    50    29    30 ar  
    51    29    31 1   
    52    30    33 1   
    53    31    32 3   
@<TRIPOS>SUBSTRUCTURE
     1 2C5         1 TEMP              0 ****  ****    0 ROOT
