@<TRIPOS>MOLECULE
2C5
   50    53     1     0     0
SMALL
No Charge or Current Charge


@<TRIPOS>ATOM
      1 O2          -0.6910     0.5610     0.2540 os         1 2C5      -0.459000
      2 C38         -1.9490     0.3820     0.9320 c3         1 2C5       0.299900
      3 C40         -3.0440     0.0150    -0.0760 ca         1 2C5      -0.066300
      4 C43         -4.2730    -0.4820     0.4040 ca         1 2C5      -0.099500
      5 C44         -5.3050    -0.8260    -0.4860 ca         1 2C5      -0.075000
      6 C45         -5.1220    -0.6780    -1.8730 ca         1 2C5      -0.014000
      7 C46         -3.8990    -0.1810    -2.3620 ca         1 2C5      -0.075000
      8 C47         -2.8670     0.1630    -1.4710 ca         1 2C5      -0.099500
      9 C52          1.0760    -4.4510     0.6530 ca         1 2C5      -0.090000
     10 C53          2.3370    -4.0220     1.0960 ca         1 2C5       0.117000
     11 Cl1          3.3690    -5.1220     2.0010 cl         1 2C5      -0.192000
     12 C65         -6.1760    -1.0290    -2.7840 cg         1 2C5       0.321000
     13 C7           2.7770    -2.7170     0.8200 ca         1 2C5      -0.091000
     14 N1          -7.0400    -1.3090    -3.5200 n1         1 2C5      -0.447000
     15 C2           0.2550    -3.5730    -0.0750 ca         1 2C5      -0.103000
     16 C3           1.9590    -1.8130     0.1010 cp         1 2C5      -0.044000
     17 C4           0.6960    -2.2670    -0.3520 ca         1 2C5      -0.089000
     18 C1           0.4720     0.6520     1.1080 c3         1 2C5       0.106300
     19 N3          -2.7580     3.0400     3.4190 nc         1 2C5      -0.671000
     20 C10         -2.5060     1.7450     3.0660 cc         1 2C5       0.244900
     21 C12         -2.2640     1.6300     1.7250 cd         1 2C5      -0.265300
     22 N4          -2.3770     2.9210     1.2250 na         1 2C5      -0.138500
     23 C5          -2.6780     3.7480     2.2980 cd         1 2C5       0.398400
     24 C15         -2.2130     3.3520    -0.1730 c3         1 2C5       0.052900
     25 N2           2.1840     1.9950     0.0020 nb         1 2C5      -0.666000
     26 C11          1.7450     0.7360     0.2600 ca         1 2C5       0.394300
     27 C13          2.4360    -0.4290    -0.1890 cp         1 2C5      -0.067000
     28 C14          3.6310    -0.2400    -0.9210 ca         1 2C5      -0.027000
     29 C17          4.0800     1.0630    -1.1920 ca         1 2C5      -0.050000
     30 C6           3.3210     2.1470    -0.7130 ca         1 2C5       0.474000
     31 C9           5.2830     1.2750    -1.9410 cg         1 2C5       0.322000
     32 N5           6.2650     1.4340    -2.5520 n1         1 2C5      -0.417000
     33 Cl2          3.8010     3.8200    -1.0000 cl         1 2C5      -0.131000
     34 HC38        -1.8650    -0.4570     1.6360 h1         1 2C5       0.059700
     35 HC43        -4.4300    -0.5990     1.4750 ha         1 2C5       0.131000
     36 HC44        -6.2460    -1.2070    -0.0940 ha         1 2C5       0.128500
     37 HC46        -3.7450    -0.0600    -3.4330 ha         1 2C5       0.128500
     38 HC47        -1.9330     0.5480    -1.8740 ha         1 2C5       0.131000
     39 HC52         0.7390    -5.4620     0.8680 ha         1 2C5       0.134000
     40 HC7          3.7540    -2.3990     1.1730 ha         1 2C5       0.133000
     41 HC2         -0.7200    -3.9050    -0.4280 ha         1 2C5       0.125000
     42 HC4          0.0580    -1.6050    -0.9320 ha         1 2C5       0.134000
     43 HC11         0.4130     1.5400     1.7510 h1         1 2C5       0.059700
     44 HC12         0.5390    -0.2230     1.7670 h1         1 2C5       0.059700
     45 HC10        -2.5140     0.9640     3.8150 h4         1 2C5       0.035100
     46 HC5         -2.8210     4.8170     2.1870 h5         1 2C5       0.056100
     47 H151        -1.2420     3.0150    -0.5540 h1         1 2C5       0.061700
     48 H152        -3.0150     2.9220    -0.7860 h1         1 2C5       0.061700
     49 H153        -2.2610     4.4460    -0.2350 h1         1 2C5       0.061700
     50 HC14         4.1920    -1.1030    -1.2790 ha         1 2C5       0.143000
@<TRIPOS>BOND
     1     1     2 1   
     2     1    18 1   
     3     2     3 1   
     4     2    21 1   
     5     2    34 1   
     6     3     4 ar  
     7     3     8 ar  
     8     4     5 ar  
     9     4    35 1   
    10     5     6 ar  
    11     5    36 1   
    12     6     7 ar  
    13     6    12 1   
    14     7     8 ar  
    15     7    37 1   
    16     8    38 1   
    17     9    10 ar  
    18     9    15 ar  
    19     9    39 1   
    20    10    11 1   
    21    10    13 ar  
    22    12    14 3   
    23    13    16 ar  
    24    13    40 1   
    25    15    17 ar  
    26    15    41 1   
    27    16    17 ar  
    28    16    27 1   
    29    17    42 1   
    30    18    26 1   
    31    18    43 1   
    32    18    44 1   
    33    19    20 1   
    34    19    23 2   
    35    20    21 2   
    36    20    45 1   
    37    21    22 1   
    38    22    23 1   
    39    22    24 1   
    40    23    46 1   
    41    24    47 1   
    42    24    48 1   
    43    24    49 1   
    44    25    26 ar  
    45    25    30 ar  
    46    26    27 ar  
    47    27    28 ar  
    48    28    29 ar  
    49    28    50 1   
    50    29    30 ar  
    51    29    31 1   
    52    30    33 1   
    53    31    32 3   
@<TRIPOS>SUBSTRUCTURE
     1 2C5         1 TEMP              0 ****  ****    0 ROOT
