@<TRIPOS>MOLECULE
2C6
   59    63     1     0     0
SMALL
No Charge or Current Charge


@<TRIPOS>ATOM
      1 N1           7.5390    -1.4870     0.4240 ns         1 2C6      -0.421400
      2 C9           8.6010    -0.9790    -0.2370 c          1 2C6       0.580600
      3 O1           9.6840    -1.5440    -0.2570 o          1 2C6      -0.532000
      4 C10          8.3180     0.3070    -0.9210 ca         1 2C6      -0.203600
      5 C11          9.3200     0.9740    -1.6580 ca         1 2C6      -0.040000
      6 C15          9.0310     2.1890    -2.2970 ca         1 2C6      -0.134000
      7 C16          7.7440     2.7390    -2.2010 ca         1 2C6      -0.073000
      8 C17          6.7510     2.0710    -1.4660 ca         1 2C6      -0.105000
      9 C7           7.0190     0.8510    -0.8170 ca         1 2C6       0.193400
     10 N2           5.9680     0.2500    -0.1030 nc         1 2C6      -0.642100
     11 C8           6.3150    -0.8980     0.4760 cd         1 2C6       0.530800
     12 S1           5.0490    -1.7190     1.3940 ss         1 2C6      -0.289200
     13 C18         -5.4310     0.4310     0.0170 cc         1 2C6       0.418300
     14 N4          -5.6880     1.7230    -0.1290 nd         1 2C6      -0.356000
     15 N5          -7.0350     1.8280    -0.3630 nd         1 2C6      -0.360000
     16 C19         -7.5060     0.5920    -0.3430 cc         1 2C6       0.481500
     17 C20         -8.8960     0.1600    -0.5410 ca         1 2C6      -0.144500
     18 O2          -6.5440    -0.3350    -0.1080 os         1 2C6      -0.282000
     19 C21         -9.2440    -1.2100    -0.4900 ca         1 2C6      -0.068000
     20 C22        -10.5760    -1.6160    -0.6800 ca         1 2C6      -0.118500
     21 C23        -11.5770    -0.6630    -0.9240 ca         1 2C6      -0.086000
     22 C24        -11.2440     0.7000    -0.9780 ca         1 2C6      -0.118500
     23 C25         -9.9130     1.1100    -0.7880 ca         1 2C6      -0.068000
     24 C1          -1.7200    -0.6200    -0.5630 c6         1 2C6      -0.090400
     25 C2          -1.1350    -0.1340     0.7880 c6         1 2C6       0.111700
     26 C3          -2.1420    -0.4280     1.9310 c6         1 2C6      -0.090400
     27 C4          -3.5190     0.2280     1.6560 c6         1 2C6      -0.067900
     28 C5          -4.1030    -0.2390     0.2940 c6         1 2C6      -0.086000
     29 C6          -3.0930     0.0360    -0.8550 c6         1 2C6      -0.067900
     30 C12          3.5700    -0.6170     1.2290 c3         1 2C6       0.087600
     31 C13          2.3730    -1.2190     1.9880 c3         1 2C6      -0.162400
     32 C14          1.1480    -0.3170     1.8610 c          1 2C6       0.603100
     33 O3           1.0520     0.7450     2.4580 o          1 2C6      -0.592100
     34 N3           0.1470    -0.7980     1.0480 ns         1 2C6      -0.507900
     35 H1           7.6930    -2.3610     0.9020 hn         1 2C6       0.338500
     36 H2          10.3210     0.5520    -1.7370 ha         1 2C6       0.135000
     37 H3           9.8030     2.7030    -2.8660 ha         1 2C6       0.120000
     38 H4           7.5150     3.6810    -2.6950 ha         1 2C6       0.118000
     39 H5           5.7560     2.5040    -1.3960 ha         1 2C6       0.135000
     40 H6          -8.4840    -1.9670    -0.3020 ha         1 2C6       0.132000
     41 H7         -10.8320    -2.6730    -0.6380 ha         1 2C6       0.119500
     42 H8         -12.6080    -0.9790    -1.0710 ha         1 2C6       0.117000
     43 H9         -12.0190     1.4400    -1.1670 ha         1 2C6       0.119500
     44 H10         -9.6760     2.1720    -0.8330 ha         1 2C6       0.132000
     45 H11         -1.0200    -0.3840    -1.3760 hc         1 2C6       0.049450
     46 H12         -1.8300    -1.7140    -0.5530 hc         1 2C6       0.049450
     47 H13         -0.9630     0.9520     0.7300 h1         1 2C6       0.082700
     48 H14         -2.2670    -1.5130     2.0500 hc         1 2C6       0.049450
     49 H15         -1.7440    -0.0550     2.8850 hc         1 2C6       0.049450
     50 H16         -4.2160    -0.0210     2.4680 hc         1 2C6       0.060200
     51 H17         -3.4110     1.3230     1.6650 hc         1 2C6       0.060200
     52 H18         -4.2650    -1.3250     0.3490 hc         1 2C6       0.068700
     53 H19         -2.9590     1.1190    -0.9900 hc         1 2C6       0.060200
     54 H20         -3.4910    -0.3480    -1.8050 hc         1 2C6       0.060200
     55 H21          3.8110     0.3750     1.6350 h1         1 2C6       0.098700
     56 H22          3.3200    -0.5030     0.1650 h1         1 2C6       0.098700
     57 H23          2.1600    -2.2130     1.5760 hc         1 2C6       0.068700
     58 H24          2.6410    -1.3030     3.0470 hc         1 2C6       0.068700
     59 H25          0.3180    -1.6940     0.6060 hn         1 2C6       0.309500
@<TRIPOS>BOND
     1     1     2 1   
     2     1    11 1   
     3     1    35 1   
     4     2     3 2   
     5     2     4 1   
     6     4     5 ar  
     7     4     9 ar  
     8     5     6 ar  
     9     5    36 1   
    10     6     7 ar  
    11     6    37 1   
    12     7     8 ar  
    13     7    38 1   
    14     8     9 ar  
    15     8    39 1   
    16     9    10 1   
    17    10    11 2   
    18    11    12 1   
    19    12    30 1   
    20    13    14 2   
    21    13    18 1   
    22    13    28 1   
    23    14    15 1   
    24    15    16 2   
    25    16    17 1   
    26    16    18 1   
    27    17    19 ar  
    28    17    23 ar  
    29    19    20 ar  
    30    19    40 1   
    31    20    21 ar  
    32    20    41 1   
    33    21    22 ar  
    34    21    42 1   
    35    22    23 ar  
    36    22    43 1   
    37    23    44 1   
    38    24    25 1   
    39    24    29 1   
    40    24    45 1   
    41    24    46 1   
    42    25    26 1   
    43    25    34 1   
    44    25    47 1   
    45    26    27 1   
    46    26    48 1   
    47    26    49 1   
    48    27    28 1   
    49    27    50 1   
    50    27    51 1   
    51    28    29 1   
    52    28    52 1   
    53    29    53 1   
    54    29    54 1   
    55    30    31 1   
    56    30    55 1   
    57    30    56 1   
    58    31    32 1   
    59    31    57 1   
    60    31    58 1   
    61    32    33 2   
    62    32    34 1   
    63    34    59 1   
@<TRIPOS>SUBSTRUCTURE
     1 2C6         1 TEMP              0 ****  ****    0 ROOT
