@<TRIPOS>MOLECULE
2C6
   59    63     1     0     0
SMALL
bcc


@<TRIPOS>ATOM
      1 N1           7.5260    -1.4060     0.5820 ns         1 2C6      -0.488400
      2 C9           8.7490    -0.7700     0.5230 c          1 2C6       0.723100
      3 O1           9.7800    -1.3740     0.7470 o          1 2C6      -0.607500
      4 C10          8.6470     0.6420     0.1750 ca         1 2C6      -0.203600
      5 C11          9.7940     1.4340     0.0710 ca         1 2C6      -0.058000
      6 C15          9.6830     2.7670    -0.2610 ca         1 2C6      -0.152000
      7 C16          8.4200     3.3210    -0.4940 ca         1 2C6      -0.091000
      8 C17          7.2820     2.5510    -0.3960 ca         1 2C6      -0.123000
      9 C7           7.3780     1.1940    -0.0590 ca         1 2C6       0.193400
     10 N2           6.2220     0.4530     0.0320 nc         1 2C6      -0.642100
     11 C8           6.3350    -0.7850     0.3400 cd         1 2C6       0.530800
     12 S1           4.9430    -1.8330     0.4910 ss         1 2C6      -0.241300
     13 C18         -5.5910     0.1570    -0.4320 cc         1 2C6       0.462700
     14 N4          -5.8690     1.1710    -1.1720 nd         1 2C6      -0.356000
     15 N5          -7.2190     1.3740    -1.0830 nd         1 2C6      -0.360000
     16 C19         -7.6790     0.4680    -0.2920 cc         1 2C6       0.525900
     17 C20         -9.0500     0.2470     0.1360 ca         1 2C6      -0.144500
     18 O2          -6.6970    -0.3340     0.1520 os         1 2C6      -0.370800
     19 C21         -9.3870    -0.8250     0.9630 ca         1 2C6      -0.086000
     20 C22        -10.7040    -1.0080     1.3540 ca         1 2C6      -0.136500
     21 C23        -11.6910    -0.1290     0.9270 ca         1 2C6      -0.104000
     22 C24        -11.3570     0.9400     0.1030 ca         1 2C6      -0.136500
     23 C25        -10.0440     1.1290    -0.2930 ca         1 2C6      -0.086000
     24 C1          -2.2750    -1.6110    -1.2050 c6         1 2C6      -0.090400
     25 C2          -1.3410    -0.6320    -0.5020 c6         1 2C6       0.111700
     26 C3          -1.9690    -0.1120     0.7900 c6         1 2C6      -0.090400
     27 C4          -3.3280     0.5240     0.5280 c6         1 2C6      -0.067900
     28 C5          -4.2690    -0.4680    -0.1700 c6         1 2C6      -0.086000
     29 C6          -3.6390    -0.9850    -1.4680 c6         1 2C6      -0.067900
     30 C12          3.5950    -0.6930     0.0700 c3         1 2C6       0.039700
     31 C13          2.2940    -1.4670     0.1930 c3         1 2C6      -0.162400
     32 C14          1.0970    -0.5950    -0.1460 c          1 2C6       0.670100
     33 O3           1.1910     0.6140    -0.2950 o          1 2C6      -0.592100
     34 N3          -0.0590    -1.2670    -0.2660 ns         1 2C6      -0.574900
     35 H1           7.5400    -2.3920     0.8140 hn         1 2C6       0.338500
     36 H2          10.7650     0.9940     0.2550 ha         1 2C6       0.153000
     37 H3          10.5680     3.3820    -0.3440 ha         1 2C6       0.138000
     38 H4           8.3350     4.3690    -0.7540 ha         1 2C6       0.136000
     39 H5           6.3030     2.9760    -0.5770 ha         1 2C6       0.153000
     40 H6          -8.6310    -1.5200     1.3030 ha         1 2C6       0.150000
     41 H7         -10.9590    -1.8430     1.9930 ha         1 2C6       0.137500
     42 H8         -12.7170    -0.2750     1.2360 ha         1 2C6       0.135000
     43 H9         -12.1210     1.6280    -0.2300 ha         1 2C6       0.137500
     44 H10         -9.7870     1.9630    -0.9320 ha         1 2C6       0.150000
     45 H11         -1.8310    -1.9350    -2.1490 hc         1 2C6       0.049450
     46 H12         -2.3990    -2.5090    -0.5880 hc         1 2C6       0.049450
     47 H13         -1.1690     0.2160    -1.1710 h1         1 2C6       0.082700
     48 H14         -2.0800    -0.9420     1.4960 hc         1 2C6       0.049450
     49 H15         -1.3050     0.6180     1.2560 hc         1 2C6       0.049450
     50 H16         -3.7700     0.8590     1.4690 hc         1 2C6       0.060200
     51 H17         -3.2110     1.4120    -0.1000 hc         1 2C6       0.060200
     52 H18         -4.4310    -1.3180     0.5010 hc         1 2C6       0.068700
     53 H19         -3.5330    -0.1570    -2.1750 hc         1 2C6       0.060200
     54 H20         -4.2970    -1.7180    -1.9380 hc         1 2C6       0.060200
     55 H21          3.6230     0.1510     0.7550 h1         1 2C6       0.098700
     56 H22          3.7500    -0.3280    -0.9430 h1         1 2C6       0.098700
     57 H23          2.2980    -2.3430    -0.4610 hc         1 2C6       0.068700
     58 H24          2.1660    -1.8430     1.2130 hc         1 2C6       0.068700
     59 H25         -0.0580    -2.2580    -0.0780 hn         1 2C6       0.309500
@<TRIPOS>BOND
     1     1     2 1   
     2     1    11 1   
     3     1    35 1   
     4     2     3 2   
     5     2     4 1   
     6     4     5 ar  
     7     4     9 ar  
     8     5     6 ar  
     9     5    36 1   
    10     6     7 ar  
    11     6    37 1   
    12     7     8 ar  
    13     7    38 1   
    14     8     9 ar  
    15     8    39 1   
    16     9    10 1   
    17    10    11 2   
    18    11    12 1   
    19    12    30 1   
    20    13    14 2   
    21    13    18 1   
    22    13    28 1   
    23    14    15 1   
    24    15    16 2   
    25    16    17 1   
    26    16    18 1   
    27    17    19 ar  
    28    17    23 ar  
    29    19    20 ar  
    30    19    40 1   
    31    20    21 ar  
    32    20    41 1   
    33    21    22 ar  
    34    21    42 1   
    35    22    23 ar  
    36    22    43 1   
    37    23    44 1   
    38    24    25 1   
    39    24    29 1   
    40    24    45 1   
    41    24    46 1   
    42    25    26 1   
    43    25    34 1   
    44    25    47 1   
    45    26    27 1   
    46    26    48 1   
    47    26    49 1   
    48    27    28 1   
    49    27    50 1   
    50    27    51 1   
    51    28    29 1   
    52    28    52 1   
    53    29    53 1   
    54    29    54 1   
    55    30    31 1   
    56    30    55 1   
    57    30    56 1   
    58    31    32 1   
    59    31    57 1   
    60    31    58 1   
    61    32    33 2   
    62    32    34 1   
    63    34    59 1   
@<TRIPOS>SUBSTRUCTURE
     1 2C6         1 TEMP              0 ****  ****    0 ROOT
