@<TRIPOS>MOLECULE
2C7
   45    47     1     0     0
SMALL
abcg2


@<TRIPOS>ATOM
      1 CAE         -5.4020     0.4830    -0.1740 c3         1 2C7      -0.065400
      2 CAA         -6.1680    -0.1000     1.0120 c3         1 2C7      -0.067900
      3 CAB         -6.4000    -1.6070     0.9910 c3         1 2C7      -0.070900
      4 CAC         -5.1640    -2.4750     0.7640 c3         1 2C7      -0.070900
      5 CAD         -4.5910    -2.3470    -0.6490 c3         1 2C7      -0.067900
      6 CAG         -3.5920    -1.2110    -0.8640 c3         1 2C7      -0.065400
      7 CAF         -3.9130     0.1160    -0.1720 c3         1 2C7      -0.056700
      8 CAH         -3.1020     1.2540    -0.8160 c3         1 2C7      -0.013200
      9 CAI         -1.6350     1.0210    -0.8670 ce         1 2C7      -0.208300
     10 CAJ         -0.8120     0.8640    -1.9030 cf         1 2C7      -0.068200
     11 SAP         -0.6900     0.9930     0.6500 sy         1 2C7       0.978600
     12 OAO         -0.7730     2.2910     1.3100 o          1 2C7      -0.501000
     13 OAW         -0.9700    -0.1970     1.4460 o          1 2C7      -0.501000
     14 CAQ          0.8530     0.7930    -0.2000 ca         1 2C7      -0.231500
     15 CAR          2.1030     0.6910     0.3580 ca         1 2C7       0.015000
     16 CAK          0.6080     0.7190    -1.5660 ca         1 2C7      -0.029800
     17 CAL          1.6780     0.5420    -2.4270 ca         1 2C7      -0.074000
     18 CAM          2.9600     0.4360    -1.8990 ca         1 2C7      -0.071000
     19 CAS          3.1610     0.5160    -0.5290 ca         1 2C7       0.114100
     20 OAT          4.4500     0.4740    -0.0430 os         1 2C7      -0.439800
     21 SAU          5.0220    -0.9390     0.5340 s6         1 2C7       1.399800
     22 OAA          6.3510    -0.5660     0.9460 o          1 2C7      -0.536500
     23 OAN          4.0650    -1.4720     1.4720 o          1 2C7      -0.536500
     24 NAV          4.9980    -1.8800    -0.7850 n8         1 2C7      -1.081100
     25 HAE         -5.8650     0.1890    -1.1220 hc         1 2C7       0.037450
     26 HAEA        -5.4960     1.5720    -0.1220 hc         1 2C7       0.037450
     27 HAA         -5.6310     0.1730     1.9280 hc         1 2C7       0.035700
     28 HAAA        -7.1410     0.3930     1.0820 hc         1 2C7       0.035700
     29 HAB         -6.8730    -1.8930     1.9350 hc         1 2C7       0.038700
     30 HABA        -7.1280    -1.8430     0.2060 hc         1 2C7       0.038700
     31 HAC         -4.3960    -2.2570     1.5150 hc         1 2C7       0.038700
     32 HACA        -5.4530    -3.5160     0.9310 hc         1 2C7       0.038700
     33 HAD         -4.0980    -3.2810    -0.9310 hc         1 2C7       0.035700
     34 HADA        -5.4270    -2.2400    -1.3470 hc         1 2C7       0.035700
     35 HAG         -2.6030    -1.5370    -0.5310 hc         1 2C7       0.037450
     36 HAGA        -3.5000    -1.0380    -1.9420 hc         1 2C7       0.037450
     37 HAF         -3.6040     0.0410     0.8760 hc         1 2C7       0.060700
     38 HAH         -3.4510     1.4160    -1.8400 hc         1 2C7       0.058700
     39 HAHA        -3.2940     2.1850    -0.2720 hc         1 2C7       0.058700
     40 HAJ         -1.1510     0.8650    -2.9310 ha         1 2C7       0.204000
     41 HAR          2.2660     0.7690     1.4250 ha         1 2C7       0.157000
     42 HAL          1.5260     0.4870    -3.4970 ha         1 2C7       0.129000
     43 HAM          3.8080     0.3050    -2.5570 ha         1 2C7       0.134000
     44 HNAV         5.8210    -1.8280    -1.3740 hn         1 2C7       0.500000
     45 HNAA         4.6700    -2.8230    -0.6230 hn         1 2C7       0.500000
@<TRIPOS>BOND
     1     1     2 1   
     2     1     7 1   
     3     1    25 1   
     4     1    26 1   
     5     2     3 1   
     6     2    27 1   
     7     2    28 1   
     8     3     4 1   
     9     3    29 1   
    10     3    30 1   
    11     4     5 1   
    12     4    31 1   
    13     4    32 1   
    14     5     6 1   
    15     5    33 1   
    16     5    34 1   
    17     6     7 1   
    18     6    35 1   
    19     6    36 1   
    20     7     8 1   
    21     7    37 1   
    22     8     9 1   
    23     8    38 1   
    24     8    39 1   
    25     9    10 2   
    26     9    11 1   
    27    10    16 1   
    28    10    40 1   
    29    11    12 2   
    30    11    13 2   
    31    11    14 1   
    32    14    15 ar  
    33    14    16 ar  
    34    15    19 ar  
    35    15    41 1   
    36    16    17 ar  
    37    17    18 ar  
    38    17    42 1   
    39    18    19 ar  
    40    18    43 1   
    41    19    20 1   
    42    20    21 1   
    43    21    22 2   
    44    21    23 2   
    45    21    24 1   
    46    24    44 1   
    47    24    45 1   
@<TRIPOS>SUBSTRUCTURE
     1 2C7         1 TEMP              0 ****  ****    0 ROOT
