@<TRIPOS>MOLECULE
2C7
   45    47     1     0     0
SMALL
No Charge or Current Charge


@<TRIPOS>ATOM
      1 CAE         -5.5230     0.5530    -0.0800 c3         1 2C7      -0.065400
      2 CAA         -6.2780    -0.1330     1.0860 c3         1 2C7      -0.067900
      3 CAB         -6.5250    -1.6500     0.9420 c3         1 2C7      -0.070900
      4 CAC         -5.2700    -2.5120     0.6740 c3         1 2C7      -0.070900
      5 CAD         -4.6910    -2.3210    -0.7450 c3         1 2C7      -0.067900
      6 CAG         -3.7170    -1.1330    -0.9340 c3         1 2C7      -0.065400
      7 CAF         -4.0140     0.1860    -0.1600 c3         1 2C7      -0.056700
      8 CAH         -3.1770     1.3640    -0.7340 c3         1 2C7      -0.013200
      9 CAI         -1.6790     1.1050    -0.7590 ce         1 2C7      -0.208300
     10 CAJ         -0.8770     0.7030    -1.7860 cf         1 2C7      -0.068200
     11 SAP         -0.6570     1.3500     0.7000 sy         1 2C7       0.978600
     12 OAO         -0.6000     2.7790     1.0390 o          1 2C7      -0.501000
     13 OAW         -0.9760     0.3390     1.7170 o          1 2C7      -0.501000
     14 CAQ          0.8380     0.8810    -0.1540 ca         1 2C7      -0.231500
     15 CAR          2.1400     0.8200     0.3640 ca         1 2C7       0.015000
     16 CAK          0.5560     0.5600    -1.4830 ca         1 2C7      -0.029800
     17 CAL          1.5820     0.1670    -2.3530 ca         1 2C7      -0.074000
     18 CAM          2.9010     0.0980    -1.8550 ca         1 2C7      -0.071000
     19 CAS          3.1780     0.4130    -0.5020 ca         1 2C7       0.114100
     20 OAT          4.4680     0.3590    -0.0330 os         1 2C7      -0.439800
     21 SAU          5.1020    -1.1000     0.3650 s6         1 2C7       1.399800
     22 OAA          6.1760    -0.9460     1.3430 o          1 2C7      -0.536500
     23 OAN          4.0550    -2.1070     0.5160 o          1 2C7      -0.536500
     24 NAV          5.8520    -1.4440    -1.0320 n8         1 2C7      -1.081100
     25 HAE         -6.0190     0.3370    -1.0340 hc         1 2C7       0.037450
     26 HAEA        -5.6200     1.6350     0.0730 hc         1 2C7       0.037450
     27 HAA         -5.7380     0.0530     2.0220 hc         1 2C7       0.035700
     28 HAAA        -7.2530     0.3570     1.1990 hc         1 2C7       0.035700
     29 HAB         -6.9980    -2.0060     1.8650 hc         1 2C7       0.038700
     30 HABA        -7.2560    -1.8200     0.1420 hc         1 2C7       0.038700
     31 HAC         -4.5010    -2.3210     1.4320 hc         1 2C7       0.038700
     32 HACA        -5.5590    -3.5650     0.7840 hc         1 2C7       0.038700
     33 HAD         -4.1600    -3.2370    -1.0310 hc         1 2C7       0.035700
     34 HADA        -5.5170    -2.2240    -1.4600 hc         1 2C7       0.035700
     35 HAG         -2.7140    -1.4740    -0.6490 hc         1 2C7       0.037450
     36 HAGA        -3.6670    -0.9170    -2.0080 hc         1 2C7       0.037450
     37 HAF         -3.6660     0.0380     0.8700 hc         1 2C7       0.060700
     38 HAH         -3.5300     1.5750    -1.7520 hc         1 2C7       0.058700
     39 HAHA        -3.3810     2.2740    -0.1550 hc         1 2C7       0.058700
     40 HAJ         -1.2510     0.4930    -2.7910 ha         1 2C7       0.204000
     41 HAR          2.3480     1.0770     1.4000 ha         1 2C7       0.157000
     42 HAL          1.3690    -0.0770    -3.3910 ha         1 2C7       0.129000
     43 HAM          3.7110    -0.1960    -2.5170 ha         1 2C7       0.134000
     44 HNAV         6.8110    -1.3380    -0.7120 hn         1 2C7       0.500000
     45 HNAA         5.7430    -2.4540    -1.0260 hn         1 2C7       0.500000
@<TRIPOS>BOND
     1     1     2 1   
     2     1     7 1   
     3     1    25 1   
     4     1    26 1   
     5     2     3 1   
     6     2    27 1   
     7     2    28 1   
     8     3     4 1   
     9     3    29 1   
    10     3    30 1   
    11     4     5 1   
    12     4    31 1   
    13     4    32 1   
    14     5     6 1   
    15     5    33 1   
    16     5    34 1   
    17     6     7 1   
    18     6    35 1   
    19     6    36 1   
    20     7     8 1   
    21     7    37 1   
    22     8     9 1   
    23     8    38 1   
    24     8    39 1   
    25     9    10 2   
    26     9    11 1   
    27    10    16 1   
    28    10    40 1   
    29    11    12 2   
    30    11    13 2   
    31    11    14 1   
    32    14    15 ar  
    33    14    16 ar  
    34    15    19 ar  
    35    15    41 1   
    36    16    17 ar  
    37    17    18 ar  
    38    17    42 1   
    39    18    19 ar  
    40    18    43 1   
    41    19    20 1   
    42    20    21 1   
    43    21    22 2   
    44    21    23 2   
    45    21    24 1   
    46    24    44 1   
    47    24    45 1   
@<TRIPOS>SUBSTRUCTURE
     1 2C7         1 TEMP              0 ****  ****    0 ROOT
