@<TRIPOS>MOLECULE
2C8
   52    56     1     0     0
SMALL
abcg2


@<TRIPOS>ATOM
      1 N1          -6.6910     1.4720     0.0320 ns         1 2C8      -0.432400
      2 C1          -8.0070     1.0710     0.0680 c          1 2C8       0.579600
      3 O1          -8.9150     1.8800     0.1160 o          1 2C8      -0.532000
      4 C2          -8.1620    -0.3790     0.0430 ca         1 2C8      -0.202600
      5 C3          -9.4320    -0.9610     0.0730 ca         1 2C8      -0.039000
      6 C4          -9.5610    -2.3330     0.0470 ca         1 2C8      -0.132000
      7 C5          -8.4170    -3.1370    -0.0080 ca         1 2C8      -0.074000
      8 C6          -7.1600    -2.5740    -0.0380 ca         1 2C8      -0.106000
      9 C7          -7.0120    -1.1800    -0.0130 ca         1 2C8       0.187400
     10 N2          -5.7420    -0.6510    -0.0480 nc         1 2C8      -0.642100
     11 C8          -5.6210     0.6260    -0.0270 cd         1 2C8       0.504900
     12 C9          -4.2810     1.2920    -0.0790 c3         1 2C8      -0.108700
     13 C10         -3.1290     0.3060    -0.0750 c3         1 2C8      -0.150400
     14 C11         -1.7900     0.9920    -0.2270 c          1 2C8       0.606100
     15 O2          -1.6700     2.1380    -0.6140 o          1 2C8      -0.574100
     16 N3          -0.7380     0.1850     0.0900 ns         1 2C8      -0.147000
     17 C12          0.6260     0.4360     0.0060 ca         1 2C8       0.008000
     18 C13          1.4820    -0.6230     0.3250 ca         1 2C8      -0.163500
     19 C14          2.8520    -0.4740     0.2700 ca         1 2C8      -0.037500
     20 C15          1.1850     1.6620    -0.3700 ca         1 2C8      -0.163500
     21 C16          2.5580     1.8040    -0.4220 ca         1 2C8      -0.037500
     22 C18          4.8440     0.9390    -0.1830 cc         1 2C8       0.488500
     23 C17          3.4110     0.7470    -0.1070 ca         1 2C8      -0.175500
     24 N4           5.5030     2.0130    -0.4640 nd         1 2C8      -0.360000
     25 N5           6.8260     1.6900    -0.4170 nd         1 2C8      -0.356000
     26 C19          6.8970     0.4400    -0.1100 cc         1 2C8       0.478500
     27 C20          8.0780    -0.3880     0.0610 ca         1 2C8      -0.141500
     28 O3           5.6730    -0.0910     0.0520 os         1 2C8      -0.281000
     29 C21          9.3390     0.1880    -0.1070 ca         1 2C8      -0.068500
     30 C22         10.4770    -0.5830     0.0460 ca         1 2C8      -0.118500
     31 C23         10.3710    -1.9310     0.3680 ca         1 2C8      -0.087000
     32 C24          9.1180    -2.5050     0.5360 ca         1 2C8      -0.118500
     33 C25          7.9720    -1.7400     0.3840 ca         1 2C8      -0.068500
     34 H1          -6.5200     2.4710     0.0450 hn         1 2C8       0.332500
     35 H2         -10.3090    -0.3280     0.1170 ha         1 2C8       0.137000
     36 H3         -10.5420    -2.7880     0.0690 ha         1 2C8       0.121000
     37 H4          -8.5210    -4.2140    -0.0290 ha         1 2C8       0.118000
     38 H5          -6.2740    -3.1930    -0.0820 ha         1 2C8       0.130000
     39 H6          -4.2480     1.9180    -0.9750 hc         1 2C8       0.078700
     40 H7          -4.2010     1.9780     0.7690 hc         1 2C8       0.078700
     41 H8          -3.1400    -0.2940     0.8380 hc         1 2C8       0.080700
     42 H9          -3.2350    -0.4050    -0.8990 hc         1 2C8       0.080700
     43 H10         -0.9790    -0.7450     0.4020 hn         1 2C8       0.154000
     44 H11          1.0680    -1.5790     0.6220 ha         1 2C8       0.134000
     45 H12          3.4770    -1.3200     0.5250 ha         1 2C8       0.133500
     46 H13          0.5630     2.5050    -0.6210 ha         1 2C8       0.134000
     47 H14          2.9710     2.7590    -0.7180 ha         1 2C8       0.133500
     48 H15          9.4260     1.2380    -0.3550 ha         1 2C8       0.131500
     49 H16         11.4510    -0.1310    -0.0860 ha         1 2C8       0.119000
     50 H17         11.2630    -2.5320     0.4890 ha         1 2C8       0.117000
     51 H18          9.0300    -3.5540     0.7850 ha         1 2C8       0.119000
     52 H19          7.0040    -2.2050     0.5200 ha         1 2C8       0.131500
@<TRIPOS>BOND
     1     1     2 1   
     2     1    11 1   
     3     1    34 1   
     4     2     3 2   
     5     2     4 1   
     6     4     5 ar  
     7     4     9 ar  
     8     5     6 ar  
     9     5    35 1   
    10     6     7 ar  
    11     6    36 1   
    12     7     8 ar  
    13     7    37 1   
    14     8     9 ar  
    15     8    38 1   
    16     9    10 1   
    17    10    11 2   
    18    11    12 1   
    19    12    13 1   
    20    12    39 1   
    21    12    40 1   
    22    13    14 1   
    23    13    41 1   
    24    13    42 1   
    25    14    15 2   
    26    14    16 1   
    27    16    17 1   
    28    16    43 1   
    29    17    18 ar  
    30    17    20 ar  
    31    18    19 ar  
    32    18    44 1   
    33    19    23 ar  
    34    19    45 1   
    35    20    21 ar  
    36    20    46 1   
    37    21    23 ar  
    38    21    47 1   
    39    22    23 1   
    40    22    24 2   
    41    22    28 1   
    42    24    25 1   
    43    25    26 2   
    44    26    27 1   
    45    26    28 1   
    46    27    29 ar  
    47    27    33 ar  
    48    29    30 ar  
    49    29    48 1   
    50    30    31 ar  
    51    30    49 1   
    52    31    32 ar  
    53    31    50 1   
    54    32    33 ar  
    55    32    51 1   
    56    33    52 1   
@<TRIPOS>SUBSTRUCTURE
     1 2C8         1 TEMP              0 ****  ****    0 ROOT
