@<TRIPOS>MOLECULE
2C8
   52    56     1     0     0
SMALL
No Charge or Current Charge


@<TRIPOS>ATOM
      1 N1          -6.4430     1.1230    -0.4080 ns         1 2C8      -0.432400
      2 C1          -7.7180     0.7070    -0.5740 c          1 2C8       0.579600
      3 O1          -8.5500     1.3890    -1.1510 o          1 2C8      -0.532000
      4 C2          -7.9890    -0.6320     0.0050 ca         1 2C8      -0.202600
      5 C3          -9.2730    -1.2120    -0.0820 ca         1 2C8      -0.039000
      6 C4          -9.5100    -2.4800     0.4700 ca         1 2C8      -0.132000
      7 C5          -8.4690    -3.1690     1.1080 ca         1 2C8      -0.074000
      8 C6          -7.1920    -2.5870     1.1910 ca         1 2C8      -0.106000
      9 C7          -6.9330    -1.3160     0.6450 ca         1 2C8       0.187400
     10 N2          -5.6280    -0.8080     0.7740 nc         1 2C8      -0.642100
     11 C8          -5.4780     0.4000     0.2300 cd         1 2C8       0.504900
     12 C9          -4.1180     1.0490     0.2860 c3         1 2C8      -0.108700
     13 C10         -3.2540     0.7700    -0.9760 c3         1 2C8      -0.150400
     14 C11         -1.8720     1.4300    -0.8800 c          1 2C8       0.606100
     15 O2          -1.7390     2.6410    -1.0060 o          1 2C8      -0.574100
     16 N3          -0.8240     0.5400    -0.6780 ns         1 2C8      -0.147000
     17 C12          0.5770     0.7270    -0.5300 ca         1 2C8       0.008000
     18 C13          1.3810    -0.4220    -0.4290 ca         1 2C8      -0.163500
     19 C14          2.7740    -0.3190    -0.2780 ca         1 2C8      -0.037500
     20 C15          1.1960     1.9930    -0.4710 ca         1 2C8      -0.163500
     21 C16          2.5900     2.1010    -0.3200 ca         1 2C8      -0.037500
     22 C18          4.8510     1.0650    -0.0650 cc         1 2C8       0.488500
     23 C17          3.3960     0.9470    -0.2230 ca         1 2C8      -0.175500
     24 N4           5.5650     2.1790     0.0040 nd         1 2C8      -0.360000
     25 N5           6.8710     1.7830     0.1500 nd         1 2C8      -0.356000
     26 C19          6.8530     0.4580     0.1580 cc         1 2C8       0.478500
     27 C20          8.0010    -0.4510     0.2910 ca         1 2C8      -0.141500
     28 O3           5.6050    -0.0580     0.0260 os         1 2C8      -0.281000
     29 C21          9.3100     0.0640     0.4300 ca         1 2C8      -0.068500
     30 C22         10.4090    -0.8020     0.5570 ca         1 2C8      -0.118500
     31 C23         10.2160    -2.1930     0.5460 ca         1 2C8      -0.087000
     32 C24          8.9210    -2.7170     0.4090 ca         1 2C8      -0.118500
     33 C25          7.8190    -1.8530     0.2820 ca         1 2C8      -0.068500
     34 H1          -6.2230     2.0300    -0.7910 hn         1 2C8       0.332500
     35 H2         -10.0860    -0.6830    -0.5770 ha         1 2C8       0.137000
     36 H3         -10.5000    -2.9270     0.4020 ha         1 2C8       0.121000
     37 H4          -8.6480    -4.1530     1.5370 ha         1 2C8       0.118000
     38 H5          -6.3920    -3.1290     1.6880 ha         1 2C8       0.130000
     39 H6          -4.2270     2.1320     0.4220 hc         1 2C8       0.078700
     40 H7          -3.5800     0.6920     1.1740 hc         1 2C8       0.078700
     41 H8          -3.1430    -0.3160    -1.0890 hc         1 2C8       0.080700
     42 H9          -3.7710     1.1780    -1.8520 hc         1 2C8       0.080700
     43 H10         -1.1120    -0.4280    -0.6190 hn         1 2C8       0.154000
     44 H11          0.9250    -1.4090    -0.4690 ha         1 2C8       0.134000
     45 H12          3.3650    -1.2300    -0.2040 ha         1 2C8       0.133500
     46 H13          0.6180     2.9090    -0.5350 ha         1 2C8       0.134000
     47 H14          3.0410     3.0920    -0.2780 ha         1 2C8       0.133500
     48 H15          9.4810     1.1390     0.4400 ha         1 2C8       0.131500
     49 H16         11.4120    -0.3940     0.6630 ha         1 2C8       0.119000
     50 H17         11.0680    -2.8630     0.6450 ha         1 2C8       0.117000
     51 H18          8.7700    -3.7940     0.4010 ha         1 2C8       0.119000
     52 H19          6.8240    -2.2820     0.1760 ha         1 2C8       0.131500
@<TRIPOS>BOND
     1     1     2 1   
     2     1    11 1   
     3     1    34 1   
     4     2     3 2   
     5     2     4 1   
     6     4     5 ar  
     7     4     9 ar  
     8     5     6 ar  
     9     5    35 1   
    10     6     7 ar  
    11     6    36 1   
    12     7     8 ar  
    13     7    37 1   
    14     8     9 ar  
    15     8    38 1   
    16     9    10 1   
    17    10    11 2   
    18    11    12 1   
    19    12    13 1   
    20    12    39 1   
    21    12    40 1   
    22    13    14 1   
    23    13    41 1   
    24    13    42 1   
    25    14    15 2   
    26    14    16 1   
    27    16    17 1   
    28    16    43 1   
    29    17    18 ar  
    30    17    20 ar  
    31    18    19 ar  
    32    18    44 1   
    33    19    23 ar  
    34    19    45 1   
    35    20    21 ar  
    36    20    46 1   
    37    21    23 ar  
    38    21    47 1   
    39    22    23 1   
    40    22    24 2   
    41    22    28 1   
    42    24    25 1   
    43    25    26 2   
    44    26    27 1   
    45    26    28 1   
    46    27    29 ar  
    47    27    33 ar  
    48    29    30 ar  
    49    29    48 1   
    50    30    31 ar  
    51    30    49 1   
    52    31    32 ar  
    53    31    50 1   
    54    32    33 ar  
    55    32    51 1   
    56    33    52 1   
@<TRIPOS>SUBSTRUCTURE
     1 2C8         1 TEMP              0 ****  ****    0 ROOT
