@<TRIPOS>MOLECULE
2C9
   19    19     1     0     0
SMALL
No Charge or Current Charge


@<TRIPOS>ATOM
      1 CAA          2.6020     0.6330    -0.0230 c3         1 2C9      -0.044800
      2 CAG          1.2320    -0.0470     0.0170 ca         1 2C9      -0.109300
      3 CAE          1.1720    -1.4540     0.0730 ca         1 2C9      -0.109000
      4 CAD         -0.0630    -2.1170     0.1170 ca         1 2C9      -0.113000
      5 CAF         -1.2580    -1.3830     0.1010 ca         1 2C9      -0.143000
      6 CAH         -1.2320     0.0210     0.0410 ca         1 2C9       0.217000
      7 NAB         -2.4460     0.6930     0.0070 nv         1 2C9      -1.058000
      8 CAI          0.0300     0.7060     0.0050 ca         1 2C9       0.231000
      9 NAC          0.0930     2.0950    -0.0290 nv         1 2C9      -1.058000
     10 H1           2.7090     1.2540    -0.9200 hc         1 2C9       0.039033
     11 H2           2.7500     1.2740     0.8540 hc         1 2C9       0.039033
     12 H3           3.4190    -0.0970    -0.0340 hc         1 2C9       0.039033
     13 H4           2.0890    -2.0400     0.0850 ha         1 2C9       0.110000
     14 H5          -0.0940    -3.2040     0.1610 ha         1 2C9       0.112000
     15 H6          -2.2080    -1.9100     0.1310 ha         1 2C9       0.109000
     16 H7          -3.3040     0.1580    -0.1160 hn         1 2C9       0.433500
     17 H8          -2.4630     1.6580    -0.3140 hn         1 2C9       0.433500
     18 H9          -0.7280     2.6240     0.2550 hn         1 2C9       0.435500
     19 H10          0.9930     2.5490     0.0990 hn         1 2C9       0.435500
@<TRIPOS>BOND
     1     1     2 1   
     2     1    10 1   
     3     1    11 1   
     4     1    12 1   
     5     2     3 ar  
     6     2     8 ar  
     7     3     4 ar  
     8     3    13 1   
     9     4     5 ar  
    10     4    14 1   
    11     5     6 ar  
    12     5    15 1   
    13     6     7 1   
    14     6     8 ar  
    15     7    16 1   
    16     7    17 1   
    17     8     9 1   
    18     9    18 1   
    19     9    19 1   
@<TRIPOS>SUBSTRUCTURE
     1 2C9         1 TEMP              0 ****  ****    0 ROOT
