@<TRIPOS>MOLECULE
2C9
   19    19     1     0     0
SMALL
bcc


@<TRIPOS>ATOM
      1 CAA          2.5520     0.6400    -0.0470 c3         1 2C9      -0.044800
      2 CAG          1.2230    -0.0600     0.0110 ca         1 2C9      -0.109300
      3 CAE          1.1590    -1.4520     0.0700 ca         1 2C9      -0.127000
      4 CAD         -0.0610    -2.1050     0.1310 ca         1 2C9      -0.131000
      5 CAF         -1.2380    -1.3690     0.1080 ca         1 2C9      -0.161000
      6 CAH         -1.2060     0.0200     0.0410 ca         1 2C9       0.078600
      7 NAB         -2.3700     0.7880     0.0590 nv         1 2C9      -0.809200
      8 CAI          0.0380     0.6830     0.0130 ca         1 2C9       0.092600
      9 NAC          0.0390     2.0750    -0.0640 nv         1 2C9      -0.809200
     10 H1           2.6560     1.2440    -0.9520 hc         1 2C9       0.039033
     11 H2           2.7000     1.3110     0.8030 hc         1 2C9       0.039033
     12 H3           3.3700    -0.0780    -0.0370 hc         1 2C9       0.039033
     13 H4           2.0800    -2.0220     0.0740 ha         1 2C9       0.128000
     14 H5          -0.1020    -3.1850     0.1820 ha         1 2C9       0.130000
     15 H6          -2.1970    -1.8740     0.1360 ha         1 2C9       0.127000
     16 H7          -3.2100     0.2420    -0.0580 hn         1 2C9       0.378300
     17 H8          -2.3680     1.5450    -0.6120 hn         1 2C9       0.378300
     18 H9          -0.6920     2.5050     0.4860 hn         1 2C9       0.380300
     19 H10          0.9220     2.5040     0.1660 hn         1 2C9       0.380300
@<TRIPOS>BOND
     1     1     2 1   
     2     1    10 1   
     3     1    11 1   
     4     1    12 1   
     5     2     3 ar  
     6     2     8 ar  
     7     3     4 ar  
     8     3    13 1   
     9     4     5 ar  
    10     4    14 1   
    11     5     6 ar  
    12     5    15 1   
    13     6     7 1   
    14     6     8 ar  
    15     7    16 1   
    16     7    17 1   
    17     8     9 1   
    18     9    18 1   
    19     9    19 1   
@<TRIPOS>SUBSTRUCTURE
     1 2C9         1 TEMP              0 ****  ****    0 ROOT
