@<TRIPOS>MOLECULE
2CA
   67    70     1     0     0
SMALL
No Charge or Current Charge


@<TRIPOS>ATOM
      1 S1          -5.7210    -1.5690    -1.0470 sy         1 2CA       1.119200
      2 O1          -5.7350    -2.8850    -0.3920 o          1 2CA      -0.522500
      3 O2          -5.6610    -1.4800    -2.5130 o          1 2CA      -0.522500
      4 O5           4.5310     2.3400     1.0550 o          1 2CA      -0.602100
      5 O6           5.6590    -1.1180     0.5980 os         1 2CA      -0.174200
      6 N2          -0.1480     1.0120    -0.3880 ns         1 2CA      -0.493900
      7 N3           3.5380     0.5950    -0.0330 ns         1 2CA      -0.479900
      8 N4          -7.6260    -0.7260     0.8220 nb         1 2CA      -0.609000
      9 C8           1.0720     0.3760    -0.2720 c          1 2CA       0.590100
     10 C9           2.3140     1.2830    -0.5080 c3         1 2CA       0.033700
     11 C10          2.4440     1.6770    -2.0080 c3         1 2CA      -0.088400
     12 C11          3.5300     2.7380    -2.3440 c3         1 2CA      -0.057700
     13 C12          3.7240     2.8630    -3.8720 c3         1 2CA      -0.090600
     14 C13          3.2210     4.1210    -1.7220 c3         1 2CA      -0.090600
     15 C15          5.6510     0.2200     1.0110 cc         1 2CA      -0.059100
     16 C16          6.7970     0.5070     1.7300 cd         1 2CA      -0.150200
     17 C17          8.8120    -0.9760     2.3760 ca         1 2CA      -0.050000
     18 C18          9.3030    -2.2930     2.2360 ca         1 2CA      -0.135000
     19 C19          8.5580    -3.2660     1.5230 ca         1 2CA      -0.083000
     20 C20          7.3140    -2.9320     0.9430 ca         1 2CA      -0.108000
     21 C21          6.8470    -1.6200     1.0950 ca         1 2CA       0.077100
     22 C22          7.5760    -0.6870     1.7860 ca         1 2CA      -0.131800
     23 C23         -7.0950    -0.4960    -0.4210 ca         1 2CA       0.129900
     24 C24         -7.5640     0.5560    -1.2410 ca         1 2CA      -0.066000
     25 C25         -8.5980     1.3880    -0.7770 ca         1 2CA      -0.088000
     26 C26         -9.1340     1.1420     0.4970 ca         1 2CA      -0.114000
     27 C27         -8.6230     0.0790     1.2600 ca         1 2CA       0.322900
     28 C01         -1.4670     0.3650    -0.1860 c3         1 2CA       0.025700
     29 C02         -1.7950     0.2200     1.3190 c3         1 2CA      -0.079400
     30 C03         -2.9050    -0.8080     1.6360 c3         1 2CA      -0.087400
     31 C04         -4.2840    -0.5630     0.9850 c3         1 2CA       0.229800
     32 N05         -4.2910    -0.7980    -0.4800 n3         1 2CA      -0.776500
     33 C06         -3.8580     0.3820    -1.3090 c3         1 2CA       0.114800
     34 C07         -2.5760     1.1570    -0.9230 c          1 2CA       0.563100
     35 HN2         -0.1300     2.0000    -0.6200 hn         1 2CA       0.321500
     36 HN3          3.6420    -0.3940    -0.2310 hn         1 2CA       0.347500
     37 HC9          2.1490     2.1850     0.0950 h1         1 2CA       0.089700
     38 H101         1.4780     2.0510    -2.3690 hc         1 2CA       0.058200
     39 H102         2.6460     0.7630    -2.5830 hc         1 2CA       0.058200
     40 H11          4.4870     2.3930    -1.9310 hc         1 2CA       0.053700
     41 H121         4.5210     3.5790    -4.1050 hc         1 2CA       0.034867
     42 H122         4.0030     1.8960    -4.3090 hc         1 2CA       0.034867
     43 H123         2.8010     3.2050    -4.3570 hc         1 2CA       0.034867
     44 H131         2.2630     4.5080    -2.0890 hc         1 2CA       0.034867
     45 H132         3.1740     4.0690    -0.6290 hc         1 2CA       0.034867
     46 H133         4.0030     4.8440    -1.9840 hc         1 2CA       0.034867
     47 H16          7.0480     1.4720     2.1670 ha         1 2CA       0.229000
     48 H17          9.3710    -0.2180     2.9200 ha         1 2CA       0.122000
     49 H18         10.2600    -2.5610     2.6780 ha         1 2CA       0.116000
     50 H19          8.9470    -4.2770     1.4220 ha         1 2CA       0.117000
     51 H20          6.7330    -3.6690     0.3940 ha         1 2CA       0.134000
     52 H24         -7.1330     0.7270    -2.2250 ha         1 2CA       0.154000
     53 H25         -8.9740     2.2040    -1.3920 ha         1 2CA       0.127000
     54 H26         -9.9350     1.7600     0.8940 ha         1 2CA       0.129000
     55 H27         -9.0200    -0.1340     2.2510 h4         1 2CA       0.026100
     56 H01         -1.4330    -0.6350    -0.6390 h1         1 2CA       0.099700
     57 H021        -0.8910    -0.0970     1.8540 hc         1 2CA       0.051200
     58 H022        -2.0680     1.1990     1.7320 hc         1 2CA       0.051200
     59 H031        -2.5590    -1.8090     1.3500 hc         1 2CA       0.062200
     60 H032        -3.0430    -0.8330     2.7240 hc         1 2CA       0.062200
     61 H041        -4.9700    -1.2590     1.4870 h1         1 2CA       0.064200
     62 H042        -4.6410     0.4480     1.2280 h1         1 2CA       0.064200
     63 H061        -3.6850     0.0590    -2.3440 h1         1 2CA       0.083700
     64 H062        -4.6590     1.1320    -1.3370 h1         1 2CA       0.083700
     65 O08         -2.4440     2.3480    -1.2000 o          1 2CA      -0.512100
     66 C14          4.5520     1.1690     0.6990 c          1 2CA       0.649300
     67 O4           1.1530    -0.8170    -0.0030 o          1 2CA      -0.594100
@<TRIPOS>BOND
     1     1     2 2   
     2     1     3 2   
     3     1    23 1   
     4     1    32 1   
     5     4    66 2   
     6     5    15 1   
     7     5    21 1   
     8     6     9 1   
     9     6    28 1   
    10     6    35 1   
    11     7    10 1   
    12     7    36 1   
    13     7    66 1   
    14     8    23 ar  
    15     8    27 ar  
    16     9    10 1   
    17     9    67 2   
    18    10    11 1   
    19    10    37 1   
    20    11    12 1   
    21    11    38 1   
    22    11    39 1   
    23    12    13 1   
    24    12    14 1   
    25    12    40 1   
    26    13    41 1   
    27    13    42 1   
    28    13    43 1   
    29    14    44 1   
    30    14    45 1   
    31    14    46 1   
    32    15    16 2   
    33    15    66 1   
    34    16    22 1   
    35    16    47 1   
    36    17    18 ar  
    37    17    22 ar  
    38    17    48 1   
    39    18    19 ar  
    40    18    49 1   
    41    19    20 ar  
    42    19    50 1   
    43    20    21 ar  
    44    20    51 1   
    45    21    22 ar  
    46    23    24 ar  
    47    24    25 ar  
    48    24    52 1   
    49    25    26 ar  
    50    25    53 1   
    51    26    27 ar  
    52    26    54 1   
    53    27    55 1   
    54    28    29 1   
    55    28    34 1   
    56    28    56 1   
    57    29    30 1   
    58    29    57 1   
    59    29    58 1   
    60    30    31 1   
    61    30    59 1   
    62    30    60 1   
    63    31    32 1   
    64    31    61 1   
    65    31    62 1   
    66    32    33 1   
    67    33    34 1   
    68    33    63 1   
    69    33    64 1   
    70    34    65 2   
@<TRIPOS>SUBSTRUCTURE
     1 2CA         1 TEMP              0 ****  ****    0 ROOT
