@<TRIPOS>MOLECULE
2CA
   67    70     1     0     0
SMALL
bcc


@<TRIPOS>ATOM
      1 S1          -4.5460    -1.2510     0.7770 sy         1 2CA       1.260800
      2 O1          -5.0380    -1.2710     2.1420 o          1 2CA      -0.593300
      3 O2          -3.5180    -2.1900     0.3580 o          1 2CA      -0.593300
      4 O5           4.5090     1.6250     1.6540 o          1 2CA      -0.602100
      5 O6           4.9790    -1.3580    -0.2100 os         1 2CA      -0.174200
      6 N2          -0.0720     1.7650     0.8500 ns         1 2CA      -0.560900
      7 N3           3.2300     0.7200     0.0060 ns         1 2CA      -0.546900
      8 N4          -6.9550    -0.6680    -0.0580 nb         1 2CA      -0.609000
      9 C8           0.8380     1.0420     0.1810 c          1 2CA       0.657100
     10 C9           2.1910     1.7190     0.0020 c3         1 2CA       0.033700
     11 C10          2.1660     2.5060    -1.3170 c3         1 2CA      -0.088400
     12 C11          3.4200     3.3360    -1.5900 c3         1 2CA      -0.057700
     13 C12          3.3580     3.9000    -3.0070 c3         1 2CA      -0.090600
     14 C13          3.5940     4.4620    -0.5760 c3         1 2CA      -0.090600
     15 C15          5.2450    -0.3650     0.6840 cc         1 2CA      -0.059100
     16 C16          6.4090    -0.5770     1.3360 cd         1 2CA      -0.100200
     17 C17          8.0740    -2.5750     1.0530 ca         1 2CA      -0.068000
     18 C18          8.2320    -3.7410     0.3300 ca         1 2CA      -0.153000
     19 C19          7.2790    -4.1480    -0.6150 ca         1 2CA      -0.101000
     20 C20          6.1400    -3.4020    -0.8660 ca         1 2CA      -0.126000
     21 C21          6.0020    -2.2360    -0.1320 ca         1 2CA       0.077100
     22 C22          6.9320    -1.8050     0.8170 ca         1 2CA      -0.131800
     23 C23         -5.9440    -1.4770    -0.3170 ca         1 2CA       0.195200
     24 C24         -5.9090    -2.4090    -1.3350 ca         1 2CA      -0.149300
     25 C25         -7.0390    -2.4990    -2.1400 ca         1 2CA      -0.106000
     26 C26         -8.1140    -1.6660    -1.8860 ca         1 2CA      -0.197300
     27 C27         -8.0240    -0.7620    -0.8320 ca         1 2CA       0.388200
     28 C01         -1.4540     1.3690     0.9050 c3         1 2CA       0.025700
     29 C02         -2.2260     2.3430     1.8130 c3         1 2CA      -0.079400
     30 C03         -3.5710     1.8390     2.3160 c3         1 2CA      -0.087400
     31 C04         -4.5360     1.4080     1.2260 c3         1 2CA       0.229800
     32 N05         -4.0090     0.2650     0.4770 n3         1 2CA      -0.776500
     33 C06         -3.2890     0.5430    -0.7440 c3         1 2CA       0.114800
     34 C07         -2.0500     1.3800    -0.5000 c          1 2CA       0.563100
     35 HN2          0.1770     2.6840     1.1810 hn         1 2CA       0.321500
     36 HN3          3.1260    -0.0430    -0.6460 hn         1 2CA       0.347500
     37 HC9          2.3740     2.3970     0.8360 h1         1 2CA       0.089700
     38 H101         1.2890     3.1620    -1.3130 hc         1 2CA       0.058200
     39 H102         2.0140     1.7930    -2.1350 hc         1 2CA       0.058200
     40 H11          4.2920     2.6760    -1.5320 hc         1 2CA       0.053700
     41 H121         4.2610     4.4630    -3.2450 hc         1 2CA       0.034867
     42 H122         3.2540     3.1060    -3.7490 hc         1 2CA       0.034867
     43 H123         2.5070     4.5770    -3.1230 hc         1 2CA       0.034867
     44 H131         2.7290     5.1290    -0.5900 hc         1 2CA       0.034867
     45 H132         3.7190     4.0920     0.4420 hc         1 2CA       0.034867
     46 H133         4.4770     5.0600    -0.8090 hc         1 2CA       0.034867
     47 H16          6.8450     0.0580     2.0900 ha         1 2CA       0.179000
     48 H17          8.8130    -2.2660     1.7810 ha         1 2CA       0.140000
     49 H18          9.1070    -4.3580     0.4920 ha         1 2CA       0.134000
     50 H19          7.4350    -5.0700    -1.1600 ha         1 2CA       0.135000
     51 H20          5.4020    -3.7140    -1.5930 ha         1 2CA       0.152000
     52 H24         -5.0490    -3.0410    -1.5020 ha         1 2CA       0.172000
     53 H25         -7.0720    -3.2130    -2.9520 ha         1 2CA       0.145000
     54 H26         -9.0100    -1.7080    -2.4880 ha         1 2CA       0.147000
     55 H27         -8.8470    -0.0930    -0.6090 h4         1 2CA       0.026100
     56 H01         -1.5310     0.3560     1.3140 h1         1 2CA       0.099700
     57 H021        -1.5970     2.5460     2.6830 hc         1 2CA       0.051200
     58 H022        -2.3500     3.2980     1.2920 hc         1 2CA       0.051200
     59 H031        -3.4210     1.0020     3.0030 hc         1 2CA       0.062200
     60 H032        -4.0400     2.6380     2.8940 hc         1 2CA       0.062200
     61 H041        -5.5070     1.1650     1.6520 h1         1 2CA       0.064200
     62 H042        -4.7080     2.2170     0.5100 h1         1 2CA       0.064200
     63 H061        -2.9370    -0.3850    -1.2010 h1         1 2CA       0.083700
     64 H062        -3.9220     1.0470    -1.4800 h1         1 2CA       0.083700
     65 O08         -1.5670     2.0240    -1.3950 o          1 2CA      -0.512100
     66 C14          4.2910     0.7510     0.8260 c          1 2CA       0.716300
     67 O4           0.5970    -0.0560    -0.2930 o          1 2CA      -0.594100
@<TRIPOS>BOND
     1     1     2 2   
     2     1     3 2   
     3     1    23 1   
     4     1    32 1   
     5     4    66 2   
     6     5    15 1   
     7     5    21 1   
     8     6     9 1   
     9     6    28 1   
    10     6    35 1   
    11     7    10 1   
    12     7    36 1   
    13     7    66 1   
    14     8    23 ar  
    15     8    27 ar  
    16     9    10 1   
    17     9    67 2   
    18    10    11 1   
    19    10    37 1   
    20    11    12 1   
    21    11    38 1   
    22    11    39 1   
    23    12    13 1   
    24    12    14 1   
    25    12    40 1   
    26    13    41 1   
    27    13    42 1   
    28    13    43 1   
    29    14    44 1   
    30    14    45 1   
    31    14    46 1   
    32    15    16 2   
    33    15    66 1   
    34    16    22 1   
    35    16    47 1   
    36    17    18 ar  
    37    17    22 ar  
    38    17    48 1   
    39    18    19 ar  
    40    18    49 1   
    41    19    20 ar  
    42    19    50 1   
    43    20    21 ar  
    44    20    51 1   
    45    21    22 ar  
    46    23    24 ar  
    47    24    25 ar  
    48    24    52 1   
    49    25    26 ar  
    50    25    53 1   
    51    26    27 ar  
    52    26    54 1   
    53    27    55 1   
    54    28    29 1   
    55    28    34 1   
    56    28    56 1   
    57    29    30 1   
    58    29    57 1   
    59    29    58 1   
    60    30    31 1   
    61    30    59 1   
    62    30    60 1   
    63    31    32 1   
    64    31    61 1   
    65    31    62 1   
    66    32    33 1   
    67    33    34 1   
    68    33    63 1   
    69    33    64 1   
    70    34    65 2   
@<TRIPOS>SUBSTRUCTURE
     1 2CA         1 TEMP              0 ****  ****    0 ROOT
