@<TRIPOS>MOLECULE
2CB
   57    59     1     0     0
SMALL
No Charge or Current Charge


@<TRIPOS>ATOM
      1 CAN         -6.1320    -1.2600    -1.4160 c6         1 2CB       0.163800
      2 CAL         -7.4400    -1.6160    -0.6390 c6         1 2CB       0.163300
      3 NAY         -8.0320    -0.4270     0.0460 n3         1 2CB      -0.716600
      4 CAC         -9.2850    -0.7450     0.7640 c3         1 2CB       0.152100
      5 CAM         -7.0090     0.2170     0.9250 c6         1 2CB       0.163300
      6 CAO         -5.6980     0.5720     0.1510 c6         1 2CB       0.163800
      7 NAZ         -5.1020    -0.6180    -0.5410 n3         1 2CB      -0.721600
      8 CAK         -3.8440    -0.3170    -1.2790 c3         1 2CB       0.153800
      9 CAJ         -2.6500     0.1690    -0.4070 c3         1 2CB       0.224800
     10 NAR         -1.4190     0.3550    -1.1990 nu         1 2CB      -0.924100
     11 CAU         -0.2070     0.7840    -0.7560 ca         1 2CB       0.663900
     12 CAG          0.1410     0.8950     0.5920 ca         1 2CB      -0.265000
     13 CAH          1.4250     1.3470     0.9090 ca         1 2CB       0.058000
     14 NAP          0.5920     1.0760    -1.7740 nb         1 2CB      -0.781000
     15 CAI          1.8350     1.5090    -1.4760 ca         1 2CB       0.503900
     16 CAV          2.2790     1.6500    -0.1610 ca         1 2CB      -0.448500
     17 SBB          3.9330     2.1990     0.1170 sy         1 2CB       1.169600
     18 OAE          4.5960     2.5150    -1.1480 o          1 2CB      -0.539000
     19 OAF          3.9620     3.0980     1.2700 o          1 2CB      -0.539000
     20 NAS          4.7470     0.8540     0.7050 nu         1 2CB      -0.843100
     21 CAX          4.2720    -0.4440     0.5850 cc         1 2CB       0.097000
     22 CAW          3.7500    -1.2400     1.5570 cd         1 2CB      -0.144300
     23 CAB          3.5170    -0.9720     3.0250 c3         1 2CB      -0.033800
     24 NBA          3.4130    -2.4320     0.8990 na         1 2CB       0.141800
     25 CAD          2.7920    -3.6190     1.5070 c3         1 2CB       0.071900
     26 NAQ          3.7290    -2.4150    -0.4530 nd         1 2CB      -0.524800
     27 CAT          4.2450    -1.2110    -0.6120 cc         1 2CB       0.312300
     28 CAA          4.7780    -0.7340    -1.9360 c3         1 2CB      -0.125400
     29 HAN1        -5.7300    -2.1820    -1.8620 h1         1 2CB       0.039700
     30 HAN2        -6.3920    -0.5890    -2.2480 h1         1 2CB       0.039700
     31 HAL1        -8.1630    -2.0450    -1.3480 h1         1 2CB       0.039450
     32 HAL2        -7.2070    -2.4000     0.0960 h1         1 2CB       0.039450
     33 HAC1        -9.1040    -1.4730     1.5670 h1         1 2CB       0.032367
     34 HAC2        -9.7160     0.1610     1.2110 h1         1 2CB       0.032367
     35 HAC3       -10.0290    -1.1690     0.0760 h1         1 2CB       0.032367
     36 HAM1        -7.4150     1.1390     1.3680 h1         1 2CB       0.039450
     37 HAM2        -6.7510    -0.4530     1.7580 h1         1 2CB       0.039450
     38 HAO1        -5.9270     1.3590    -0.5820 h1         1 2CB       0.039700
     39 HAO2        -4.9860     0.9990     0.8710 h1         1 2CB       0.039700
     40 HAK1        -3.5150    -1.2240    -1.8040 h1         1 2CB       0.040200
     41 HAK2        -4.0400     0.4420    -2.0490 h1         1 2CB       0.040200
     42 HAJ1        -2.9180     1.1170     0.0770 h1         1 2CB       0.053200
     43 HAJ2        -2.4730    -0.5720     0.3850 h1         1 2CB       0.053200
     44 HAR         -1.4890     0.4030    -2.2110 hn         1 2CB       0.504000
     45 HAG         -0.5630     0.6370     1.3750 ha         1 2CB       0.127000
     46 HAH          1.7440     1.4480     1.9460 ha         1 2CB       0.133000
     47 HAI          2.4750     1.7410    -2.3270 h4         1 2CB       0.045100
     48 HAS          4.9160     1.1390     1.6620 hn         1 2CB       0.486000
     49 HAB1         2.4560    -1.0820     3.2800 hc         1 2CB       0.052367
     50 HAB2         4.0870    -1.6710     3.6470 hc         1 2CB       0.052367
     51 HAB3         3.8200     0.0440     3.3040 hc         1 2CB       0.052367
     52 HAD1         1.8050    -3.3500     1.9030 h1         1 2CB       0.057700
     53 HAD2         2.6770    -4.4100     0.7570 h1         1 2CB       0.057700
     54 HAD3         3.4250    -3.9830     2.3240 h1         1 2CB       0.057700
     55 HAA1         5.6610    -0.1000    -1.7990 hc         1 2CB       0.057700
     56 HAA2         5.0720    -1.5800    -2.5670 hc         1 2CB       0.057700
     57 HAA3         4.0200    -0.1590    -2.4770 hc         1 2CB       0.057700
@<TRIPOS>BOND
     1     1     2 1   
     2     1     7 1   
     3     1    29 1   
     4     1    30 1   
     5     2     3 1   
     6     2    31 1   
     7     2    32 1   
     8     3     4 1   
     9     3     5 1   
    10     4    33 1   
    11     4    34 1   
    12     4    35 1   
    13     5     6 1   
    14     5    36 1   
    15     5    37 1   
    16     6     7 1   
    17     6    38 1   
    18     6    39 1   
    19     7     8 1   
    20     8     9 1   
    21     8    40 1   
    22     8    41 1   
    23     9    10 1   
    24     9    42 1   
    25     9    43 1   
    26    10    11 1   
    27    10    44 1   
    28    11    12 ar  
    29    11    14 ar  
    30    12    13 ar  
    31    12    45 1   
    32    13    16 ar  
    33    13    46 1   
    34    14    15 ar  
    35    15    16 ar  
    36    15    47 1   
    37    16    17 1   
    38    17    18 2   
    39    17    19 2   
    40    17    20 1   
    41    20    21 1   
    42    20    48 1   
    43    21    22 2   
    44    21    27 1   
    45    22    23 1   
    46    22    24 1   
    47    23    49 1   
    48    23    50 1   
    49    23    51 1   
    50    24    25 1   
    51    24    26 1   
    52    25    52 1   
    53    25    53 1   
    54    25    54 1   
    55    26    27 2   
    56    27    28 1   
    57    28    55 1   
    58    28    56 1   
    59    28    57 1   
@<TRIPOS>SUBSTRUCTURE
     1 2CB         1 TEMP              0 ****  ****    0 ROOT
