@<TRIPOS>MOLECULE
2CB
   57    59     1     0     0
SMALL
bcc


@<TRIPOS>ATOM
      1 CAN         -6.1960    -1.4330    -0.7600 c6         1 2CB       0.163800
      2 CAL         -7.3690    -1.6120     0.1840 c6         1 2CB       0.163300
      3 NAY         -7.9890    -0.3360     0.4780 n3         1 2CB      -0.716600
      4 CAC         -9.1390    -0.4850     1.3380 c3         1 2CB       0.152100
      5 CAM         -7.0130     0.5740     1.0390 c6         1 2CB       0.163300
      6 CAO         -5.8350     0.7540     0.0990 c6         1 2CB       0.163800
      7 NAZ         -5.2150    -0.5250    -0.1950 n3         1 2CB      -0.721600
      8 CAK         -4.0560    -0.4130    -1.0540 c3         1 2CB       0.153800
      9 CAJ         -2.8840     0.2710    -0.3630 c3         1 2CB       0.224800
     10 NAR         -1.7010     0.1310    -1.1810 nu         1 2CB      -0.868900
     11 CAU         -0.4970     0.6350    -0.8700 ca         1 2CB       0.729200
     12 CAG         -0.3090     1.5140     0.2210 ca         1 2CB      -0.348300
     13 CAH          0.9560     1.9770     0.4790 ca         1 2CB       0.040000
     14 NAP          0.5210     0.2620    -1.6610 nb         1 2CB      -0.781000
     15 CAI          1.7300     0.7170    -1.4010 ca         1 2CB       0.569200
     16 CAV          2.0100     1.5730    -0.3430 ca         1 2CB      -0.513800
     17 SBB          3.6580     2.0410     0.0120 sy         1 2CB       1.311200
     18 OAE          4.4240     1.9170    -1.2160 o          1 2CB      -0.609800
     19 OAF          3.6430     3.2960     0.7480 o          1 2CB      -0.609800
     20 NAS          4.2720     0.9140     1.0710 nu         1 2CB      -0.649500
     21 CAX          4.3470    -0.4240     0.6460 cc         1 2CB      -0.106700
     22 CAW          3.3890    -1.4170     0.7770 cd         1 2CB      -0.093600
     23 CAB          2.0340    -1.3850     1.3810 c3         1 2CB      -0.033800
     24 NBA          3.9430    -2.5160     0.2390 na         1 2CB       0.120400
     25 CAD          3.3260    -3.8080     0.0600 c3         1 2CB       0.042600
     26 NAQ          5.1740    -2.2990    -0.2390 nd         1 2CB      -0.524800
     27 CAT          5.4450    -1.0330     0.0070 cc         1 2CB       0.377600
     28 CAA          6.7490    -0.4200    -0.3610 c3         1 2CB      -0.125400
     29 HAN1        -5.7270    -2.4050    -0.9310 h1         1 2CB       0.039700
     30 HAN2        -6.5680    -1.0770    -1.7360 h1         1 2CB       0.039700
     31 HAL1        -8.1060    -2.2680    -0.2850 h1         1 2CB       0.039450
     32 HAL2        -7.0210    -2.1190     1.1020 h1         1 2CB       0.039450
     33 HAC1        -8.8940    -0.9150     2.3220 h1         1 2CB       0.032367
     34 HAC2        -9.6070     0.4870     1.5090 h1         1 2CB       0.032367
     35 HAC3        -9.8790    -1.1340     0.8660 h1         1 2CB       0.032367
     36 HAM1        -7.4830     1.5460     1.2080 h1         1 2CB       0.039450
     37 HAM2        -6.6410     0.2220     2.0180 h1         1 2CB       0.039450
     38 HAO1        -6.1750     1.2610    -0.8210 h1         1 2CB       0.039700
     39 HAO2        -5.1140     1.4150     0.5840 h1         1 2CB       0.039700
     40 HAK1        -3.7470    -1.4270    -1.3250 h1         1 2CB       0.040200
     41 HAK2        -4.2840     0.1110    -1.9980 h1         1 2CB       0.040200
     42 HAJ1        -3.0930     1.3320    -0.2060 h1         1 2CB       0.053200
     43 HAJ2        -2.7360    -0.1820     0.6230 h1         1 2CB       0.053200
     44 HAR         -1.7060    -0.5570    -1.9170 hn         1 2CB       0.448800
     45 HAG         -1.1350     1.8170     0.8470 ha         1 2CB       0.145000
     46 HAH          1.1200     2.6480     1.3120 ha         1 2CB       0.151000
     47 HAI          2.5180     0.3860    -2.0680 h4         1 2CB       0.045100
     48 HAS          3.9890     1.0830     2.0300 hn         1 2CB       0.430800
     49 HAB1         1.2540    -1.5270     0.6300 hc         1 2CB       0.052367
     50 HAB2         1.9100    -2.1600     2.1390 hc         1 2CB       0.052367
     51 HAB3         1.8560    -0.4260     1.8620 hc         1 2CB       0.052367
     52 HAD1         2.8420    -3.8800    -0.9140 h1         1 2CB       0.057700
     53 HAD2         4.0870    -4.5790     0.1380 h1         1 2CB       0.057700
     54 HAD3         2.5810    -3.9740     0.8340 h1         1 2CB       0.057700
     55 HAA1         7.2020     0.0810     0.4940 hc         1 2CB       0.057700
     56 HAA2         7.4420    -1.1780    -0.7200 hc         1 2CB       0.057700
     57 HAA3         6.6260     0.3280    -1.1430 hc         1 2CB       0.057700
@<TRIPOS>BOND
     1     1     2 1   
     2     1     7 1   
     3     1    29 1   
     4     1    30 1   
     5     2     3 1   
     6     2    31 1   
     7     2    32 1   
     8     3     4 1   
     9     3     5 1   
    10     4    33 1   
    11     4    34 1   
    12     4    35 1   
    13     5     6 1   
    14     5    36 1   
    15     5    37 1   
    16     6     7 1   
    17     6    38 1   
    18     6    39 1   
    19     7     8 1   
    20     8     9 1   
    21     8    40 1   
    22     8    41 1   
    23     9    10 1   
    24     9    42 1   
    25     9    43 1   
    26    10    11 1   
    27    10    44 1   
    28    11    12 ar  
    29    11    14 ar  
    30    12    13 ar  
    31    12    45 1   
    32    13    16 ar  
    33    13    46 1   
    34    14    15 ar  
    35    15    16 ar  
    36    15    47 1   
    37    16    17 1   
    38    17    18 2   
    39    17    19 2   
    40    17    20 1   
    41    20    21 1   
    42    20    48 1   
    43    21    22 2   
    44    21    27 1   
    45    22    23 1   
    46    22    24 1   
    47    23    49 1   
    48    23    50 1   
    49    23    51 1   
    50    24    25 1   
    51    24    26 1   
    52    25    52 1   
    53    25    53 1   
    54    25    54 1   
    55    26    27 2   
    56    27    28 1   
    57    28    55 1   
    58    28    56 1   
    59    28    57 1   
@<TRIPOS>SUBSTRUCTURE
     1 2CB         1 TEMP              0 ****  ****    0 ROOT
