@<TRIPOS>MOLECULE
2CC
   42    46     1     0     0
SMALL
No Charge or Current Charge


@<TRIPOS>ATOM
      1 Cl1          4.9530    -3.6400    -0.4430 cl         1 2CC      -0.278000
      2 C16          4.4180    -2.0380    -0.9420 ca         1 2CC       0.080500
      3 C15          5.1420    -1.3060    -1.9070 ca         1 2CC      -0.100000
      4 C14          4.6800    -0.0370    -2.3340 ca         1 2CC      -0.183000
      5 C13          3.5010     0.5160    -1.7860 ca         1 2CC       0.014000
      6 C12          2.8300    -0.2170    -0.7930 ca         1 2CC      -0.058300
      7 C17          3.2550    -1.4620    -0.4090 ca         1 2CC      -0.055200
      8 N2           2.3440    -2.0060     0.4830 na         1 2CC      -0.230700
      9 C18          1.2710    -1.1120     0.6840 cc         1 2CC      -0.203100
     10 C11          1.5790     0.0030    -0.0900 cd         1 2CC       0.068100
     11 C10          0.6950     1.1590    -0.0680 cd         1 2CC      -0.149800
     12 C9           1.1320     2.4770    -0.0380 cc         1 2CC      -0.206600
     13 C26          2.5020     3.0520     0.1370 c          1 2CC       0.729600
     14 O28          3.4460     2.3550     0.4680 o          1 2CC      -0.734000
     15 O27          2.5980     4.2690     0.0610 o          1 2CC      -0.734000
     16 N1          -0.0350     3.2410    -0.0100 na         1 2CC      -0.045000
     17 C8          -1.1910     2.4600     0.0160 cc         1 2CC      -0.206600
     18 C29         -2.5700     3.0150    -0.1590 c          1 2CC       0.729600
     19 O32         -2.6830     4.2300    -0.0810 o          1 2CC      -0.734000
     20 O30         -3.5030     2.3050    -0.4930 o          1 2CC      -0.734000
     21 C7          -0.7350     1.1480     0.0440 cd         1 2CC      -0.149800
     22 C6          -1.6020    -0.0200     0.0600 cd         1 2CC       0.068100
     23 C19         -1.2780    -1.1270    -0.7200 cc         1 2CC      -0.203100
     24 N3          -2.3380    -2.0380    -0.5230 na         1 2CC      -0.230700
     25 C20         -3.2570    -1.5110     0.3710 ca         1 2CC      -0.055200
     26 C5          -2.8490    -0.2630     0.7620 ca         1 2CC      -0.058300
     27 C4          -3.5330     0.4580     1.7550 ca         1 2CC       0.014000
     28 C3          -4.7060    -0.1130     2.2980 ca         1 2CC      -0.183000
     29 C2          -5.1500    -1.3860     1.8640 ca         1 2CC      -0.100000
     30 C1          -4.4140    -2.1040     0.8980 ca         1 2CC       0.080500
     31 Cl2         -4.9280    -3.7100     0.3890 cl         1 2CC      -0.278000
     32 H15          6.0460    -1.7280    -2.3390 ha         1 2CC       0.094000
     33 H14          5.2290     0.5110    -3.0960 ha         1 2CC       0.094000
     34 H13          3.1200     1.4750    -2.1290 ha         1 2CC       0.144000
     35 H18          0.4440    -1.3100     1.3570 h4         1 2CC       0.211000
     36 H19         -0.4480    -1.3110    -1.3930 h4         1 2CC       0.211000
     37 H4          -3.1670     1.4210     2.1020 ha         1 2CC       0.144000
     38 H3          -5.2650     0.4250     3.0600 ha         1 2CC       0.094000
     39 H2          -6.0500    -1.8210     2.2920 ha         1 2CC       0.094000
     40 HN2          2.4420    -2.9190     0.9190 hn         1 2CC       0.333000
     41 HN1         -0.0430     4.2570    -0.0080 hn         1 2CC       0.373000
     42 HN3         -2.4230    -2.9490    -0.9640 hn         1 2CC       0.333000
@<TRIPOS>BOND
     1     1     2 1   
     2     2     3 ar  
     3     2     7 ar  
     4     3     4 ar  
     5     3    32 1   
     6     4     5 ar  
     7     4    33 1   
     8     5     6 ar  
     9     5    34 1   
    10     6     7 ar  
    11     6    10 1   
    12     7     8 1   
    13     8     9 1   
    14     8    40 1   
    15     9    10 2   
    16     9    35 1   
    17    10    11 1   
    18    11    12 2   
    19    11    21 1   
    20    12    13 1   
    21    12    16 1   
    22    13    14 1   
    23    13    15 1   
    24    16    17 1   
    25    16    41 1   
    26    17    18 1   
    27    17    21 2   
    28    18    19 1   
    29    18    20 1   
    30    21    22 1   
    31    22    23 2   
    32    22    26 1   
    33    23    24 1   
    34    23    36 1   
    35    24    25 1   
    36    24    42 1   
    37    25    26 ar  
    38    25    30 ar  
    39    26    27 ar  
    40    27    28 ar  
    41    27    37 1   
    42    28    29 ar  
    43    28    38 1   
    44    29    30 ar  
    45    29    39 1   
    46    30    31 1   
@<TRIPOS>SUBSTRUCTURE
     1 2CC         1 TEMP              0 ****  ****    0 ROOT
