@<TRIPOS>MOLECULE
2CC
   42    46     1     0     0
SMALL
abcg2


@<TRIPOS>ATOM
      1 CL1          4.5990    -3.7580    -0.3320 cl         1 2CC      -0.278000
      2 C16          4.1120    -2.1850    -0.8790 ca         1 2CC       0.080500
      3 C15          4.7480    -1.5590    -1.9290 ca         1 2CC      -0.100000
      4 C14          4.3230    -0.2880    -2.3480 ca         1 2CC      -0.183000
      5 C13          3.2790     0.3660    -1.7240 ca         1 2CC       0.014000
      6 C12          2.6270    -0.2610    -0.6590 ca         1 2CC      -0.058300
      7 C17          3.0500    -1.5440    -0.2480 ca         1 2CC      -0.055200
      8 N2           2.2520    -1.9370     0.7800 na         1 2CC      -0.230700
      9 C18          1.3340    -0.9530     1.0290 cc         1 2CC      -0.203100
     10 C11          1.5220     0.1020     0.1790 cd         1 2CC       0.068100
     11 C10          0.6850     1.2940     0.0830 cd         1 2CC      -0.149800
     12 C9           1.0810     2.6230     0.1390 cc         1 2CC      -0.206600
     13 C26          2.4010     3.2910     0.3790 c          1 2CC       0.729600
     14 O28          3.3740     2.5600     0.6310 o          1 2CC      -0.734000
     15 O27          2.3900     4.5410     0.3120 o          1 2CC      -0.734000
     16 N1          -0.0370     3.3730    -0.0110 na         1 2CC      -0.045000
     17 C8          -1.1440     2.6080    -0.1650 cc         1 2CC      -0.206600
     18 C29         -2.4740     3.2590    -0.3990 c          1 2CC       0.729600
     19 O32         -2.4810     4.5080    -0.3270 o          1 2CC      -0.734000
     20 O30         -3.4370     2.5140    -0.6520 o          1 2CC      -0.734000
     21 C7          -0.7300     1.2840    -0.1150 cd         1 2CC      -0.149800
     22 C6          -1.5510     0.0820    -0.2170 cd         1 2CC       0.068100
     23 C19         -1.3510    -0.9660    -1.0730 cc         1 2CC      -0.203100
     24 N3          -2.2540    -1.9650    -0.8250 na         1 2CC      -0.230700
     25 C20         -3.0540    -1.5880     0.2070 ca         1 2CC      -0.055200
     26 C5          -2.6470    -0.3020     0.6240 ca         1 2CC      -0.058300
     27 C4          -3.3040     0.3110     1.6930 ca         1 2CC       0.014000
     28 C3          -4.3360    -0.3600     2.3180 ca         1 2CC      -0.183000
     29 C2          -4.7450    -1.6360     1.8940 ca         1 2CC      -0.100000
     30 C1          -4.1040    -2.2470     0.8390 ca         1 2CC       0.080500
     31 CL2         -4.5710    -3.8240     0.2860 cl         1 2CC      -0.278000
     32 H15          5.5720    -2.0490    -2.4300 ha         1 2CC       0.094000
     33 H14          4.8370     0.1820    -3.1760 ha         1 2CC       0.094000
     34 H13          2.9660     1.3470    -2.0540 ha         1 2CC       0.144000
     35 H18          0.5940    -1.0820     1.8030 h4         1 2CC       0.211000
     36 H19         -0.6130    -1.0810    -1.8500 h4         1 2CC       0.211000
     37 H4          -3.0030     1.2940     2.0270 ha         1 2CC       0.144000
     38 H3          -4.8530     0.0980     3.1510 ha         1 2CC       0.094000
     39 H2          -5.5600    -2.1390     2.3960 ha         1 2CC       0.094000
     40 HN2          2.3110    -2.8120     1.2720 hn         1 2CC       0.333000
     41 HN1         -0.0440     4.3810    -0.0080 hn         1 2CC       0.373000
     42 HN3         -2.3050    -2.8360    -1.3260 hn         1 2CC       0.333000
@<TRIPOS>BOND
     1     1     2 1   
     2     2     3 ar  
     3     2     7 ar  
     4     3     4 ar  
     5     3    32 1   
     6     4     5 ar  
     7     4    33 1   
     8     5     6 ar  
     9     5    34 1   
    10     6     7 ar  
    11     6    10 1   
    12     7     8 1   
    13     8     9 1   
    14     8    40 1   
    15     9    10 2   
    16     9    35 1   
    17    10    11 1   
    18    11    12 2   
    19    11    21 1   
    20    12    13 1   
    21    12    16 1   
    22    13    14 1   
    23    13    15 1   
    24    16    17 1   
    25    16    41 1   
    26    17    18 1   
    27    17    21 2   
    28    18    19 1   
    29    18    20 1   
    30    21    22 1   
    31    22    23 2   
    32    22    26 1   
    33    23    24 1   
    34    23    36 1   
    35    24    25 1   
    36    24    42 1   
    37    25    26 ar  
    38    25    30 ar  
    39    26    27 ar  
    40    27    28 ar  
    41    27    37 1   
    42    28    29 ar  
    43    28    38 1   
    44    29    30 ar  
    45    29    39 1   
    46    30    31 1   
@<TRIPOS>SUBSTRUCTURE
     1 2CC         1 TEMP              0 ****  ****    0 ROOT
