@<TRIPOS>MOLECULE
2CD
   60    62     1     0     0
SMALL
bcc


@<TRIPOS>ATOM
      1 CAA         -6.0010     1.9090    -1.2660 c3         1 2CD      -0.124400
      2 CAB         -2.5090     0.5670     2.2290 c3         1 2CD      -0.035800
      3 CAC         -3.0210     3.5630     2.1650 c3         1 2CD       0.041600
      4 OAD         -3.8290    -2.5130    -1.5020 o          1 2CD      -0.591800
      5 OAE         -3.7060    -0.2020    -2.4140 o          1 2CD      -0.591800
      6 CAH          3.9810    -1.2780     2.1860 ca         1 2CD      -0.135000
      7 CAI          2.6460    -1.3140     1.8090 ca         1 2CD      -0.110000
      8 CAJ          0.0150    -1.8970     0.5360 ca         1 2CD      -0.151500
      9 CAK          0.3030     0.1710    -0.6180 ca         1 2CD      -0.151500
     10 CAL          3.2350    -0.3000    -0.2890 ca         1 2CD      -0.108000
     11 CAN          7.8530     1.1130    -1.0520 c3         1 2CD       0.169300
     12 CAM          6.1690     2.2830     0.2300 c3         1 2CD       0.169300
     13 CAP          8.6670    -0.1700    -1.1180 c3         1 2CD      -0.090100
     14 CAO          7.0060     2.8810     1.3490 c3         1 2CD      -0.090100
     15 NAR         -4.5510     2.9780     0.4050 nc         1 2CD      -0.523800
     16 NAS          6.6610     0.9910    -0.2270 n3         1 2CD      -0.730600
     17 NAT         -4.4800    -0.5750    -0.0590 nu         1 2CD      -0.653500
     18 CAU         -4.9780     1.8820    -0.1860 cd         1 2CD       0.380600
     19 CAV         -3.4470     1.2590     1.3100 cc         1 2CD      -0.084600
     20 CAW         -1.3040    -1.9320     0.1290 ca         1 2CD       0.115400
     21 CAX         -1.0180     0.1340    -1.0310 ca         1 2CD       0.115400
     22 CAY          2.2610    -0.8240     0.5630 cp         1 2CD      -0.062000
     23 CAZ          0.8480    -0.8540     0.1460 cp         1 2CD       0.042000
     24 CBA          4.5740    -0.2720     0.0750 ca         1 2CD      -0.084300
     25 CBB         -4.3110     0.7620     0.3480 cd         1 2CD      -0.113700
     26 CBC         -1.8470    -0.9490    -0.7090 ca         1 2CD      -0.274500
     27 C14          4.9400    -0.7630     1.3260 ca         1 2CD      -0.090000
     28 NBE         -3.6310     2.5880     1.2950 na         1 2CD       0.123400
     29 C16          5.6170     0.2360    -0.8870 c3         1 2CD       0.214100
     30 SBF         -3.5370    -1.1090    -1.3040 sy         1 2CD       1.302200
     31 HAA1        -5.5350     1.8870    -2.2510 hc         1 2CD       0.057700
     32 HAA2        -6.6570     1.0420    -1.2000 hc         1 2CD       0.057700
     33 HAA3        -6.6090     2.8090    -1.2010 hc         1 2CD       0.057700
     34 HAB1        -1.4680     0.7740     1.9760 hc         1 2CD       0.054033
     35 HAB2        -2.6640     0.8670     3.2660 hc         1 2CD       0.054033
     36 HAB3        -2.6550    -0.5100     2.1820 hc         1 2CD       0.054033
     37 HAC1        -3.6220     3.7270     3.0600 h1         1 2CD       0.058367
     38 HAC2        -2.0310     3.2270     2.4620 h1         1 2CD       0.058367
     39 HAC3        -2.9210     4.5010     1.6270 h1         1 2CD       0.058367
     40 HAH          4.2720    -1.6500     3.1590 ha         1 2CD       0.135000
     41 HAI          1.9060    -1.7000     2.4990 ha         1 2CD       0.132000
     42 H14          5.9800    -0.7290     1.6250 ha         1 2CD       0.152000
     43 HAJ          0.3950    -2.6980     1.1550 ha         1 2CD       0.155000
     44 HAK          0.9030     1.0320    -0.8780 ha         1 2CD       0.155000
     45 HAL          2.9490     0.0760    -1.2650 ha         1 2CD       0.134000
     46 HAM1         5.1530     2.1440     0.6060 h1         1 2CD       0.031450
     47 HAM2         6.0880     3.0000    -0.6040 h1         1 2CD       0.031450
     48 HAO1         6.5580     3.8130     1.6930 hc         1 2CD       0.037033
     49 HAO2         7.0590     2.1950     2.1950 hc         1 2CD       0.037033
     50 HAO3         8.0250     3.1100     1.0360 hc         1 2CD       0.037033
     51 HAN1         8.4860     1.8910    -0.6230 h1         1 2CD       0.031450
     52 HAN2         7.6040     1.4540    -2.0710 h1         1 2CD       0.031450
     53 HAP1         8.1290    -0.9870    -1.5990 hc         1 2CD       0.037033
     54 HAP2         9.5800    -0.0040    -1.6920 hc         1 2CD       0.037033
     55 HAP3         8.9500    -0.4960    -0.1170 hc         1 2CD       0.037033
     56 H161         5.1260     0.8120    -1.6890 h1         1 2CD       0.041700
     57 H162         6.0670    -0.6300    -1.3790 h1         1 2CD       0.041700
     58 HAT         -4.6570    -1.2760     0.6530 hn         1 2CD       0.441800
     59 CLF         -2.2640    -3.1990     0.8020 cl         1 2CD      -0.061400
     60 CLG         -1.5630     1.5350    -1.8730 cl         1 2CD      -0.061400
@<TRIPOS>BOND
     1     1    18 1   
     2     1    31 1   
     3     1    32 1   
     4     1    33 1   
     5     2    19 1   
     6     2    34 1   
     7     2    35 1   
     8     2    36 1   
     9     3    28 1   
    10     3    37 1   
    11     3    38 1   
    12     3    39 1   
    13     4    30 2   
    14     5    30 2   
    15     6     7 ar  
    16     6    27 ar  
    17     6    40 1   
    18     7    22 ar  
    19     7    41 1   
    20     8    20 ar  
    21     8    23 ar  
    22     8    43 1   
    23     9    21 ar  
    24     9    23 ar  
    25     9    44 1   
    26    10    22 ar  
    27    10    24 ar  
    28    10    45 1   
    29    11    13 1   
    30    11    16 1   
    31    11    51 1   
    32    11    52 1   
    33    12    14 1   
    34    12    16 1   
    35    12    46 1   
    36    12    47 1   
    37    13    53 1   
    38    13    54 1   
    39    13    55 1   
    40    14    48 1   
    41    14    49 1   
    42    14    50 1   
    43    15    18 2   
    44    15    28 1   
    45    16    29 1   
    46    17    25 1   
    47    17    30 1   
    48    17    58 1   
    49    18    25 1   
    50    19    25 2   
    51    19    28 1   
    52    20    26 ar  
    53    20    59 1   
    54    21    26 ar  
    55    21    60 1   
    56    22    23 1   
    57    24    27 ar  
    58    24    29 1   
    59    26    30 1   
    60    27    42 1   
    61    29    56 1   
    62    29    57 1   
@<TRIPOS>SUBSTRUCTURE
     1 2CD         1 TEMP              0 ****  ****    0 ROOT
