@<TRIPOS>MOLECULE
2CD
   60    62     1     0     0
SMALL
No Charge or Current Charge


@<TRIPOS>ATOM
      1 CAA         -4.5840     2.7000    -1.4540 c3         1 2CD      -0.124400
      2 CAB         -3.3580    -0.1330     2.6920 c3         1 2CD      -0.035800
      3 CAC         -2.6930     2.9190     3.0340 c3         1 2CD       0.070900
      4 OAD         -4.0940    -2.3370    -1.5320 o          1 2CD      -0.521000
      5 OAE         -3.7950    -0.0780    -2.6590 o          1 2CD      -0.521000
      6 CAH          3.7930    -1.1230     2.5000 ca         1 2CD      -0.117000
      7 CAI          2.4820    -1.1490     1.9980 ca         1 2CD      -0.092000
      8 CAJ         -0.1380    -1.8170     0.5770 ca         1 2CD      -0.133500
      9 CAK          0.4010     0.0040    -0.8990 ca         1 2CD      -0.133500
     10 CAL          3.3180    -0.5870    -0.2120 ca         1 2CD      -0.090000
     11 CAN          7.7480     1.2410    -1.1090 c3         1 2CD       0.169300
     12 CAM          5.5720     2.2050    -0.3900 c3         1 2CD       0.169300
     13 CAP          8.8330     0.1630    -0.9040 c3         1 2CD      -0.090100
     14 CAO          6.1330     3.5270     0.1750 c3         1 2CD      -0.090100
     15 NAR         -3.5880     3.0910     0.7420 nc         1 2CD      -0.523800
     16 NAS          6.5000     1.0400    -0.3190 n3         1 2CD      -0.730600
     17 NAT         -4.4690    -0.2590    -0.2720 nu         1 2CD      -0.847100
     18 CAU         -4.0650     2.2180    -0.1260 cd         1 2CD       0.315300
     19 CAV         -3.5710     0.9460     1.6600 cc         1 2CD      -0.135300
     20 CAW         -1.4520    -1.8400     0.0860 ca         1 2CD       0.207000
     21 CAX         -0.9080     0.0020    -1.4050 ca         1 2CD       0.207000
     22 CAY          2.2170    -0.8810     0.6320 cp         1 2CD      -0.062000
     23 CAZ          0.8190    -0.9020     0.0970 cp         1 2CD       0.042000
     24 CBA          4.6360    -0.5600     0.2850 ca         1 2CD      -0.084300
     25 CBB         -4.0520     0.8850     0.3840 cd         1 2CD       0.090000
     26 CBC         -1.8640    -0.9350    -0.9280 ca         1 2CD      -0.274500
     27 C14          4.8680    -0.8290     1.6460 ca         1 2CD      -0.072000
     28 NBE         -3.2750     2.3010     1.8320 na         1 2CD       0.144800
     29 C16          5.8090    -0.2410    -0.6400 c3         1 2CD       0.214100
     30 SBF         -3.5790    -0.9680    -1.5190 sy         1 2CD       1.160600
     31 HAA1        -3.7850     2.7270    -2.2020 hc         1 2CD       0.057700
     32 HAA2        -5.3780     2.0430    -1.8270 hc         1 2CD       0.057700
     33 HAA3        -5.0030     3.7090    -1.3750 hc         1 2CD       0.057700
     34 HAB1        -2.3190    -0.4850     2.6780 hc         1 2CD       0.054033
     35 HAB2        -3.5740     0.2360     3.7020 hc         1 2CD       0.054033
     36 HAB3        -4.0130    -0.9920     2.5130 hc         1 2CD       0.054033
     37 HAC1        -3.4260     2.8920     3.8490 h1         1 2CD       0.058367
     38 HAC2        -1.7970     2.3630     3.3330 h1         1 2CD       0.058367
     39 HAC3        -2.4180     3.9600     2.8280 h1         1 2CD       0.058367
     40 HAH          3.9770    -1.3260     3.5530 ha         1 2CD       0.117000
     41 HAI          1.6630    -1.3650     2.6810 ha         1 2CD       0.114000
     42 H14          5.8820    -0.8040     2.0400 ha         1 2CD       0.134000
     43 HAJ          0.1430    -2.5320     1.3450 ha         1 2CD       0.137000
     44 HAK          1.1030     0.7420    -1.2760 ha         1 2CD       0.137000
     45 HAL          3.1480    -0.3880    -1.2670 ha         1 2CD       0.116000
     46 HAM1         4.6610     1.9890     0.1840 h1         1 2CD       0.031450
     47 HAM2         5.2580     2.3730    -1.4290 h1         1 2CD       0.031450
     48 HAO1         5.3360     4.2770     0.2310 hc         1 2CD       0.037033
     49 HAO2         6.5330     3.3770     1.1850 hc         1 2CD       0.037033
     50 HAO3         6.9260     3.9330    -0.4630 hc         1 2CD       0.037033
     51 HAN1         8.2130     2.1950    -0.8330 h1         1 2CD       0.031450
     52 HAN2         7.5100     1.3010    -2.1800 h1         1 2CD       0.031450
     53 HAP1         8.5390    -0.7950    -1.3470 hc         1 2CD       0.037033
     54 HAP2         9.7660     0.4770    -1.3870 hc         1 2CD       0.037033
     55 HAP3         9.0340     0.0140     0.1630 hc         1 2CD       0.037033
     56 H161         5.4540    -0.2230    -1.6800 h1         1 2CD       0.041700
     57 H162         6.5060    -1.0840    -0.5610 h1         1 2CD       0.041700
     58 HAT         -4.6390    -1.0500     0.3360 hn         1 2CD       0.497000
     59 ClF         -2.5210    -3.0250     0.8440 cl         1 2CD      -0.153000
     60 ClG         -1.2320     1.2410    -2.6180 cl         1 2CD      -0.153000
@<TRIPOS>BOND
     1     1    18 1   
     2     1    31 1   
     3     1    32 1   
     4     1    33 1   
     5     2    19 1   
     6     2    34 1   
     7     2    35 1   
     8     2    36 1   
     9     3    28 1   
    10     3    37 1   
    11     3    38 1   
    12     3    39 1   
    13     4    30 2   
    14     5    30 2   
    15     6     7 ar  
    16     6    27 ar  
    17     6    40 1   
    18     7    22 ar  
    19     7    41 1   
    20     8    20 ar  
    21     8    23 ar  
    22     8    43 1   
    23     9    21 ar  
    24     9    23 ar  
    25     9    44 1   
    26    10    22 ar  
    27    10    24 ar  
    28    10    45 1   
    29    11    13 1   
    30    11    16 1   
    31    11    51 1   
    32    11    52 1   
    33    12    14 1   
    34    12    16 1   
    35    12    46 1   
    36    12    47 1   
    37    13    53 1   
    38    13    54 1   
    39    13    55 1   
    40    14    48 1   
    41    14    49 1   
    42    14    50 1   
    43    15    18 2   
    44    15    28 1   
    45    16    29 1   
    46    17    25 1   
    47    17    30 1   
    48    17    58 1   
    49    18    25 1   
    50    19    25 2   
    51    19    28 1   
    52    20    26 ar  
    53    20    59 1   
    54    21    26 ar  
    55    21    60 1   
    56    22    23 1   
    57    24    27 ar  
    58    24    29 1   
    59    26    30 1   
    60    27    42 1   
    61    29    56 1   
    62    29    57 1   
@<TRIPOS>SUBSTRUCTURE
     1 2CD         1 TEMP              0 ****  ****    0 ROOT
