@<TRIPOS>MOLECULE
2CE
   68    69     1     0     0
SMALL
No Charge or Current Charge


@<TRIPOS>ATOM
      1 C1          -7.0220    -0.9130    -2.6530 ca         1 2CE       0.111000
      2 C2          -7.0680    -0.3600    -1.3640 ca         1 2CE      -0.088500
      3 C3          -5.8740    -0.0400    -0.6950 ca         1 2CE      -0.105500
      4 C4          -4.6280    -0.2710    -1.3080 ca         1 2CE      -0.112000
      5 C5          -4.5880    -0.8270    -2.6060 ca         1 2CE      -0.105500
      6 C6          -5.7840    -1.1460    -3.2740 ca         1 2CE      -0.088500
      7 Cl7         -8.5150    -1.3160    -3.4920 cl         1 2CE      -0.202000
      8 S8          -3.1440     0.1630    -0.3920 ss         1 2CE      -0.061000
      9 C9          -1.7270    -0.2650    -1.4990 c3         1 2CE      -0.076400
     10 C10         -0.3980     0.0720    -0.8300 c          1 2CE       0.624100
     11 O11          0.2190     1.1000    -1.0740 o          1 2CE      -0.577100
     12 N12          0.0590    -0.8750     0.0610 ns         1 2CE      -0.491900
     13 C13          1.2750    -0.7410     0.8980 c3         1 2CE       0.030700
     14 C14          0.9070    -0.2680     2.3300 c3         1 2CE      -0.041100
     15 C15          0.0460     0.9920     2.3530 ca         1 2CE      -0.110300
     16 C16         -1.3150     0.9230     2.7070 ca         1 2CE      -0.075000
     17 C17         -2.1020     2.0890     2.7260 ca         1 2CE      -0.148000
     18 C18         -1.5400     3.3290     2.3850 ca         1 2CE       0.310000
     19 C19         -0.1800     3.4010     2.0390 ca         1 2CE      -0.148000
     20 C20          0.6100     2.2380     2.0220 ca         1 2CE      -0.075000
     21 N21         -2.3280     4.4760     2.4320 nu         1 2CE      -0.987200
     22 C22         -2.4950     5.4690     1.6010 c2         1 2CE       0.820100
     23 N23         -2.0210     5.4390     0.4590 n2         1 2CE      -0.895100
     24 N24         -3.6890     5.8930     1.8880 nv         1 2CE      -1.027200
     25 C25          2.0680    -2.0780     0.9320 c          1 2CE       0.590100
     26 O26          1.5930    -3.1490     0.5730 o          1 2CE      -0.613100
     27 N27          3.3610    -1.9790     1.4010 ns         1 2CE      -0.494900
     28 C28          4.3210    -3.0930     1.4510 c3         1 2CE       0.101000
     29 C29          4.8280    -3.5290     0.0560 c3         1 2CE       0.140600
     30 O30          5.4430    -2.3940    -0.5830 os         1 2CE      -0.458000
     31 C31          5.9470    -2.6580    -1.9080 c3         1 2CE       0.164600
     32 C32          6.5460    -1.3560    -2.4910 c3         1 2CE       0.156600
     33 O33          7.7810    -1.0560    -1.8110 os         1 2CE      -0.408000
     34 C34          8.4340     0.1550    -2.2600 c3         1 2CE       0.072600
     35 C35          9.7630     0.4400    -1.5090 c          1 2CE       0.605100
     36 O36         10.2280    -0.2710    -0.6300 o          1 2CE      -0.567100
     37 N37         10.4220     1.5620    -1.8840 nt         1 2CE      -0.619000
     38 H2          -8.0270    -0.1800    -0.8860 ha         1 2CE       0.129500
     39 H3          -5.9170     0.3880     0.3040 ha         1 2CE       0.121000
     40 H5          -3.6470    -1.0190    -3.1120 ha         1 2CE       0.121000
     41 H6          -5.7510    -1.5740    -4.2720 ha         1 2CE       0.129500
     42 H9C1        -1.7990     0.3090    -2.4300 h1         1 2CE       0.082700
     43 H9C2        -1.7440    -1.3360    -1.7290 h1         1 2CE       0.082700
     44 H12         -0.5060    -1.7100     0.1690 hn         1 2CE       0.331500
     45 H13          1.9390     0.0060     0.4430 h1         1 2CE       0.092700
     46 H141         1.8290    -0.0900     2.8970 hc         1 2CE       0.060200
     47 H142         0.3920    -1.0850     2.8490 hc         1 2CE       0.060200
     48 H16         -1.7660    -0.0320     2.9660 ha         1 2CE       0.109500
     49 H17         -3.1510     2.0230     3.0010 ha         1 2CE       0.124000
     50 H19          0.2740     4.3580     1.7990 ha         1 2CE       0.124000
     51 H20          1.6620     2.3070     1.7520 ha         1 2CE       0.109500
     52 H21         -3.1250     4.4390     3.0520 hn         1 2CE       0.493000
     53 H23         -1.2930     4.7210     0.5040 hn         1 2CE       0.386400
     54 H241        -3.7830     6.8400     1.5410 hn         1 2CE       0.469000
     55 H242        -4.3700     5.2980     1.4310 hn         1 2CE       0.469000
     56 H27          3.6890    -1.0550     1.6560 hn         1 2CE       0.328500
     57 H281         5.1800    -2.7910     2.0640 h1         1 2CE       0.066700
     58 H282         3.8460    -3.9510     1.9440 h1         1 2CE       0.066700
     59 H291         5.5520    -4.3460     0.1760 h1         1 2CE       0.035200
     60 H292         3.9860    -3.9020    -0.5410 h1         1 2CE       0.035200
     61 H311         6.7180    -3.4400    -1.8880 h1         1 2CE       0.034700
     62 H312         5.1340    -2.9960    -2.5630 h1         1 2CE       0.034700
     63 H321         6.7290    -1.5020    -3.5640 h1         1 2CE       0.029700
     64 H322         5.8230    -0.5370    -2.3770 h1         1 2CE       0.029700
     65 H341         8.6660     0.0920    -3.3310 h1         1 2CE       0.033200
     66 H342         7.7780     1.0220    -2.1120 h1         1 2CE       0.033200
     67 H371        10.0450     2.1540    -2.6100 hn         1 2CE       0.314500
     68 H372        11.2930     1.7980    -1.4300 hn         1 2CE       0.314500
@<TRIPOS>BOND
     1     1     2 ar  
     2     1     6 ar  
     3     1     7 1   
     4     2     3 ar  
     5     2    38 1   
     6     3     4 ar  
     7     3    39 1   
     8     4     5 ar  
     9     4     8 1   
    10     5     6 ar  
    11     5    40 1   
    12     6    41 1   
    13     8     9 1   
    14     9    10 1   
    15     9    42 1   
    16     9    43 1   
    17    10    11 2   
    18    10    12 1   
    19    12    13 1   
    20    12    44 1   
    21    13    14 1   
    22    13    25 1   
    23    13    45 1   
    24    14    15 1   
    25    14    46 1   
    26    14    47 1   
    27    15    16 ar  
    28    15    20 ar  
    29    16    17 ar  
    30    16    48 1   
    31    17    18 ar  
    32    17    49 1   
    33    18    19 ar  
    34    18    21 1   
    35    19    20 ar  
    36    19    50 1   
    37    20    51 1   
    38    21    22 1   
    39    21    52 1   
    40    22    23 2   
    41    22    24 1   
    42    23    53 1   
    43    24    54 1   
    44    24    55 1   
    45    25    26 2   
    46    25    27 1   
    47    27    28 1   
    48    27    56 1   
    49    28    29 1   
    50    28    57 1   
    51    28    58 1   
    52    29    30 1   
    53    29    59 1   
    54    29    60 1   
    55    30    31 1   
    56    31    32 1   
    57    31    61 1   
    58    31    62 1   
    59    32    33 1   
    60    32    63 1   
    61    32    64 1   
    62    33    34 1   
    63    34    35 1   
    64    34    65 1   
    65    34    66 1   
    66    35    36 2   
    67    35    37 1   
    68    37    67 1   
    69    37    68 1   
@<TRIPOS>SUBSTRUCTURE
     1 2CE         1 TEMP              0 ****  ****    0 ROOT
