@<TRIPOS>MOLECULE
2CE
   68    69     1     0     0
SMALL
abcg2


@<TRIPOS>ATOM
      1 C1          -7.8380    -1.6290    -1.7940 ca         1 2CE       0.111000
      2 C2          -7.4100    -0.7440    -2.7740 ca         1 2CE      -0.088500
      3 C3          -6.0920    -0.3260    -2.7830 ca         1 2CE      -0.105500
      4 C4          -5.1890    -0.7790    -1.8170 ca         1 2CE      -0.112000
      5 C5          -5.6380    -1.6640    -0.8410 ca         1 2CE      -0.105500
      6 C6          -6.9600    -2.0900    -0.8300 ca         1 2CE      -0.088500
      7 CL7         -9.4880    -2.1610    -1.7820 cl         1 2CE      -0.202000
      8 S8          -3.5480    -0.1530    -1.9390 ss         1 2CE      -0.061000
      9 C9          -2.6830    -1.0740    -0.6530 c3         1 2CE      -0.076400
     10 C10         -1.2210    -0.6740    -0.7080 c          1 2CE       0.624100
     11 O11         -0.8230     0.1970    -1.4600 o          1 2CE      -0.577100
     12 N12         -0.4450    -1.3670     0.1400 ns         1 2CE      -0.491900
     13 C13          0.9460    -1.0850     0.3710 c3         1 2CE       0.030700
     14 C14          1.1510    -0.3420     1.7080 c3         1 2CE      -0.041100
     15 C15          0.3950     0.9530     1.7300 ca         1 2CE      -0.110300
     16 C16         -0.9010     1.0230     2.2320 ca         1 2CE      -0.075000
     17 C17         -1.6210     2.2050     2.1950 ca         1 2CE      -0.148000
     18 C18         -1.0680     3.3580     1.6380 ca         1 2CE       0.310000
     19 C19          0.2260     3.2930     1.1180 ca         1 2CE      -0.148000
     20 C20          0.9400     2.1080     1.1790 ca         1 2CE      -0.075000
     21 N21         -1.8560     4.5110     1.5660 nu         1 2CE      -0.987200
     22 C22         -1.4860     5.8300     1.7320 c2         1 2CE       0.820100
     23 N23         -2.2600     6.8220     1.4890 n2         1 2CE      -0.895100
     24 N24         -0.2030     6.0460     2.1560 nv         1 2CE      -1.027200
     25 C25          1.7300    -2.3930     0.3960 c          1 2CE       0.590100
     26 O26          1.2270    -3.4260     0.8150 o          1 2CE      -0.613100
     27 N27          2.9940    -2.2870    -0.0260 ns         1 2CE      -0.494900
     28 C28          3.9590    -3.3640     0.0040 c3         1 2CE       0.101000
     29 C29          4.8810    -3.2890    -1.1930 c3         1 2CE       0.140600
     30 O30          5.5510    -2.0520    -1.1580 os         1 2CE      -0.458000
     31 C31          6.3270    -1.8050    -2.3040 c3         1 2CE       0.164600
     32 C32          6.9460    -0.4350    -2.2090 c3         1 2CE       0.156600
     33 O33          7.8680    -0.4050    -1.1470 os         1 2CE      -0.408000
     34 C34          8.4570     0.8470    -0.9930 c3         1 2CE       0.072600
     35 C35          9.4170     0.8050     0.1850 c          1 2CE       0.605100
     36 O36          9.5910    -0.2000     0.8520 o          1 2CE      -0.567100
     37 N37         10.0430     1.9690     0.4090 nt         1 2CE      -0.619000
     38 H2          -8.0940    -0.3820    -3.5290 ha         1 2CE       0.129500
     39 H3          -5.7670     0.3580    -3.5570 ha         1 2CE       0.121000
     40 H5          -4.9800    -2.0420    -0.0720 ha         1 2CE       0.121000
     41 H6          -7.2920    -2.7770    -0.0640 ha         1 2CE       0.129500
     42 H9C1        -2.7850    -2.1500    -0.8100 h1         1 2CE       0.082700
     43 H9C2        -3.0860    -0.8410     0.3360 h1         1 2CE       0.082700
     44 H12         -0.8670    -2.0840     0.7120 hn         1 2CE       0.331500
     45 H13          1.3030    -0.4540    -0.4430 h1         1 2CE       0.092700
     46 H141         2.2190    -0.1640     1.8510 hc         1 2CE       0.060200
     47 H142         0.8220    -0.9890     2.5250 hc         1 2CE       0.060200
     48 H16         -1.3560     0.1430     2.6720 ha         1 2CE       0.109500
     49 H17         -2.6240     2.2370     2.6060 ha         1 2CE       0.124000
     50 H19          0.6750     4.1610     0.6560 ha         1 2CE       0.124000
     51 H20          1.9430     2.0820     0.7680 ha         1 2CE       0.109500
     52 H21         -2.8510     4.3540     1.5460 hn         1 2CE       0.493000
     53 H23         -3.1300     6.5150     1.0700 hn         1 2CE       0.386400
     54 H241        -0.0220     7.0040     2.4090 hn         1 2CE       0.469000
     55 H242         0.1930     5.3860     2.8060 hn         1 2CE       0.469000
     56 H27          3.3300    -1.3840    -0.3250 hn         1 2CE       0.328500
     57 H281         4.5420    -3.3340     0.9300 h1         1 2CE       0.066700
     58 H282         3.4320    -4.3170    -0.0160 h1         1 2CE       0.066700
     59 H291         5.5870    -4.1280    -1.1560 h1         1 2CE       0.035200
     60 H292         4.2970    -3.3910    -2.1180 h1         1 2CE       0.035200
     61 H311         7.1100    -2.5670    -2.4210 h1         1 2CE       0.034700
     62 H312         5.7110    -1.8370    -3.2130 h1         1 2CE       0.034700
     63 H321         7.4360    -0.2140    -3.1670 h1         1 2CE       0.029700
     64 H322         6.1600     0.3210    -2.0690 h1         1 2CE       0.029700
     65 H341         9.0110     1.1540    -1.8930 h1         1 2CE       0.033200
     66 H342         7.7070     1.6310    -0.8110 h1         1 2CE       0.033200
     67 H371         9.8650     2.7870    -0.1490 hn         1 2CE       0.314500
     68 H372        10.6840     2.0670     1.1790 hn         1 2CE       0.314500
@<TRIPOS>BOND
     1     1     2 ar  
     2     1     6 ar  
     3     1     7 1   
     4     2     3 ar  
     5     2    38 1   
     6     3     4 ar  
     7     3    39 1   
     8     4     5 ar  
     9     4     8 1   
    10     5     6 ar  
    11     5    40 1   
    12     6    41 1   
    13     8     9 1   
    14     9    10 1   
    15     9    42 1   
    16     9    43 1   
    17    10    11 2   
    18    10    12 1   
    19    12    13 1   
    20    12    44 1   
    21    13    14 1   
    22    13    25 1   
    23    13    45 1   
    24    14    15 1   
    25    14    46 1   
    26    14    47 1   
    27    15    16 ar  
    28    15    20 ar  
    29    16    17 ar  
    30    16    48 1   
    31    17    18 ar  
    32    17    49 1   
    33    18    19 ar  
    34    18    21 1   
    35    19    20 ar  
    36    19    50 1   
    37    20    51 1   
    38    21    22 1   
    39    21    52 1   
    40    22    23 2   
    41    22    24 1   
    42    23    53 1   
    43    24    54 1   
    44    24    55 1   
    45    25    26 2   
    46    25    27 1   
    47    27    28 1   
    48    27    56 1   
    49    28    29 1   
    50    28    57 1   
    51    28    58 1   
    52    29    30 1   
    53    29    59 1   
    54    29    60 1   
    55    30    31 1   
    56    31    32 1   
    57    31    61 1   
    58    31    62 1   
    59    32    33 1   
    60    32    63 1   
    61    32    64 1   
    62    33    34 1   
    63    34    35 1   
    64    34    65 1   
    65    34    66 1   
    66    35    36 2   
    67    35    37 1   
    68    37    67 1   
    69    37    68 1   
@<TRIPOS>SUBSTRUCTURE
     1 2CE         1 TEMP              0 ****  ****    0 ROOT
