@<TRIPOS>MOLECULE
2CG
   20    20     1     0     0
SMALL
bcc


@<TRIPOS>ATOM
      1 N            0.0120     0.7660     2.5930 n8         1 2CG      -0.901800
      2 CA           0.4450    -0.5520     2.1350 c3         1 2CG       0.046500
      3 C            1.9830    -0.5990     2.0580 c          1 2CG       0.939600
      4 O            2.5390     0.3970     1.5440 o          1 2CG      -0.873800
      5 OXT          2.5500    -1.6280     2.4710 o          1 2CG      -0.873800
      6 CB          -0.1120    -0.8940     0.7680 cx         1 2CG      -0.108700
      7 CG1         -1.5120    -1.4050     0.6150 cx         1 2CG      -0.223200
      8 CD1         -2.4000    -0.8750    -0.4850 c          1 2CG       0.957600
      9 O11         -1.8610    -0.5750    -1.5730 o          1 2CG      -0.891550
     10 O12         -3.6180    -0.7720    -0.2190 o          1 2CG      -0.891550
     11 CG2         -0.3370    -2.2940     0.2810 cx         1 2CG      -0.223200
     12 CD2         -0.0120    -3.5150     1.1190 c          1 2CG       0.957600
     13 O21          0.7600    -4.3410     0.5850 o          1 2CG      -0.891550
     14 O22         -0.5390    -3.6300     2.2450 o          1 2CG      -0.891550
     15 HN1         -0.9810     0.8660     2.4110 hn         1 2CG       0.308300
     16 HN2          0.4730     1.4600     2.0170 hn         1 2CG       0.308300
     17 HA           0.1010    -1.3010     2.8480 h1         1 2CG       0.081700
     18 HB           0.2030    -0.2010    -0.0090 hc         1 2CG       0.054700
     19 HG1         -2.0060    -1.6630     1.5460 hc         1 2CG       0.058700
     20 HG2         -0.1500    -2.4220    -0.7800 hc         1 2CG       0.058700
@<TRIPOS>BOND
     1     1     2 1   
     2     1    15 1   
     3     1    16 1   
     4     2     3 1   
     5     2     6 1   
     6     2    17 1   
     7     3     4 1   
     8     3     5 1   
     9     6     7 1   
    10     6    11 1   
    11     6    18 1   
    12     7     8 1   
    13     7    11 1   
    14     7    19 1   
    15     8     9 1   
    16     8    10 1   
    17    11    12 1   
    18    11    20 1   
    19    12    13 1   
    20    12    14 1   
@<TRIPOS>SUBSTRUCTURE
     1 2CG         1 TEMP              0 ****  ****    0 ROOT
