@<TRIPOS>MOLECULE
2CG
   20    20     1     0     0
SMALL
No Charge or Current Charge


@<TRIPOS>ATOM
      1 N           -0.1620     0.6560     2.6960 n8         1 2CG      -1.012200
      2 CA           0.4830    -0.5890     2.1420 c3         1 2CG       0.046500
      3 C            2.0760    -0.6250     2.1400 c          1 2CG       0.729000
      4 O            2.6860     0.0670     1.3300 o          1 2CG      -0.768500
      5 OXT          2.6460    -1.2530     3.0250 o          1 2CG      -0.768500
      6 CB          -0.1060    -0.8460     0.7460 cx         1 2CG      -0.108700
      7 CG1         -1.5130    -1.4020     0.5900 cx         1 2CG      -0.223200
      8 CD1         -2.4260    -0.8230    -0.4760 c          1 2CG       0.747000
      9 O11         -2.8930    -1.5800    -1.3140 o          1 2CG      -0.786250
     10 O12         -2.7190     0.3610    -0.4040 o          1 2CG      -0.786250
     11 CG2         -0.3030    -2.2400     0.1710 cx         1 2CG      -0.223200
     12 CD2          0.1070    -3.4660     0.9740 c          1 2CG       0.747000
     13 O21          1.2640    -3.8420     0.8760 o          1 2CG      -0.786250
     14 O22         -0.7470    -4.0870     1.5900 o          1 2CG      -0.786250
     15 HN1         -1.1760     0.5830     2.5520 hn         1 2CG       0.363500
     16 HN2          0.1100     1.4490     2.1040 hn         1 2CG       0.363500
     17 HA           0.1770    -1.4240     2.7890 h1         1 2CG       0.081700
     18 HB           0.1950    -0.0820     0.0320 hc         1 2CG       0.054700
     19 HG1         -2.0240    -1.6950     1.5030 hc         1 2CG       0.058700
     20 HG2         -0.1350    -2.3420    -0.8970 hc         1 2CG       0.058700
@<TRIPOS>BOND
     1     1     2 1   
     2     1    15 1   
     3     1    16 1   
     4     2     3 1   
     5     2     6 1   
     6     2    17 1   
     7     3     4 1   
     8     3     5 1   
     9     6     7 1   
    10     6    11 1   
    11     6    18 1   
    12     7     8 1   
    13     7    11 1   
    14     7    19 1   
    15     8     9 1   
    16     8    10 1   
    17    11    12 1   
    18    11    20 1   
    19    12    13 1   
    20    12    14 1   
@<TRIPOS>SUBSTRUCTURE
     1 2CG         1 TEMP              0 ****  ****    0 ROOT
