@<TRIPOS>MOLECULE
2CH
   13    13     1     0     0
SMALL
bcc


@<TRIPOS>ATOM
      1 C1           0.8980    -0.1360     0.1500 ca         1 2CH       0.146100
      2 C2           1.0580    -0.1300     1.5340 ca         1 2CH      -0.219000
      3 C3          -0.0460    -0.0580     2.3690 ca         1 2CH      -0.084000
      4 C4          -1.3270     0.0110     1.8390 ca         1 2CH      -0.159000
      5 C5          -1.4990     0.0060     0.4620 ca         1 2CH      -0.084000
      6 C6          -0.3950    -0.0660    -0.3700 ca         1 2CH      -0.012600
      7 O            1.9250    -0.2040    -0.7100 oh         1 2CH      -0.475100
      8 CL8         -0.6010    -0.0710    -2.0890 cl         1 2CH      -0.093400
      9 H2           2.0550    -0.1840     1.9560 ha         1 2CH       0.134000
     10 H3           0.1000    -0.0540     3.4410 ha         1 2CH       0.134000
     11 H4          -2.1900     0.0680     2.4890 ha         1 2CH       0.139000
     12 H5          -2.4900     0.0590     0.0320 ha         1 2CH       0.148000
     13 H            2.7600    -0.2450    -0.2290 ho         1 2CH       0.428000
@<TRIPOS>BOND
     1     1     2 ar  
     2     1     6 ar  
     3     1     7 1   
     4     2     3 ar  
     5     2     9 1   
     6     3     4 ar  
     7     3    10 1   
     8     4     5 ar  
     9     4    11 1   
    10     5     6 ar  
    11     5    12 1   
    12     6     8 1   
    13     7    13 1   
@<TRIPOS>SUBSTRUCTURE
     1 2CH         1 TEMP              0 ****  ****    0 ROOT
