@<TRIPOS>MOLECULE
2CH
   13    13     1     0     0
SMALL
No Charge or Current Charge


@<TRIPOS>ATOM
      1 C1           0.8950    -0.1350     0.1260 ca         1 2CH       0.146100
      2 C2           1.0780    -0.1310     1.5200 ca         1 2CH      -0.201000
      3 C3          -0.0340    -0.0580     2.3790 ca         1 2CH      -0.066000
      4 C4          -1.3310     0.0110     1.8440 ca         1 2CH      -0.141000
      5 C5          -1.5210     0.0080     0.4510 ca         1 2CH      -0.066000
      6 C6          -0.4110    -0.0650    -0.4110 ca         1 2CH       0.079000
      7 O            1.9880    -0.2070    -0.6940 oh         1 2CH      -0.514100
      8 Cl8         -0.6810    -0.0680    -2.1560 cl         1 2CH      -0.185000
      9 H2           2.0780    -0.1850     1.9450 ha         1 2CH       0.116000
     10 H3           0.1100    -0.0550     3.4580 ha         1 2CH       0.116000
     11 H4          -2.1910     0.0680     2.5090 ha         1 2CH       0.121000
     12 H5          -2.5250     0.0610     0.0370 ha         1 2CH       0.130000
     13 H            2.7930    -0.2470    -0.1350 ho         1 2CH       0.467000
@<TRIPOS>BOND
     1     1     2 ar  
     2     1     6 ar  
     3     1     7 1   
     4     2     3 ar  
     5     2     9 1   
     6     3     4 ar  
     7     3    10 1   
     8     4     5 ar  
     9     4    11 1   
    10     5     6 ar  
    11     5    12 1   
    12     6     8 1   
    13     7    13 1   
@<TRIPOS>SUBSTRUCTURE
     1 2CH         1 TEMP              0 ****  ****    0 ROOT
