@<TRIPOS>MOLECULE
2CJ
   62    65     1     0     0
SMALL
No Charge or Current Charge


@<TRIPOS>ATOM
      1 OAA         -6.1090    -0.5280     2.5990 o          1 2CJ      -0.746500
      2 OAB         -2.7820     2.1470    -0.5410 o          1 2CJ      -0.607100
      3 OAC         -4.1810     0.4070     2.7760 o          1 2CJ      -0.746500
      4 CAD          4.8830    -3.8520    -1.0060 ca         1 2CJ      -0.113500
      5 CAE          6.0840     3.0830    -0.1540 ca         1 2CJ      -0.113500
      6 CAF          4.9590    -3.5580     0.3650 ca         1 2CJ      -0.116750
      7 CAG          4.2680    -2.9450    -1.8840 ca         1 2CJ      -0.116750
      8 CAH          6.0040     2.4640     1.1040 ca         1 2CJ      -0.116750
      9 CAI          5.2370     2.6660    -1.1940 ca         1 2CJ      -0.116750
     10 CAJ          4.4190    -2.3570     0.8590 ca         1 2CJ      -0.095000
     11 CAK          3.7290    -1.7440    -1.3910 ca         1 2CJ      -0.095000
     12 CAL          5.0780     1.4300     1.3230 ca         1 2CJ      -0.095000
     13 CAM          4.3110     1.6310    -0.9760 ca         1 2CJ      -0.095000
     14 CAN         -5.9310    -1.3850    -2.0820 c5         1 2CJ      -0.084900
     15 CAO         -6.4010     0.0260    -2.4840 c5         1 2CJ      -0.084900
     16 CAP         -0.0940     1.7930    -0.0110 c6         1 2CJ       0.105000
     17 CAQ         -0.5240    -0.6650    -0.3060 c6         1 2CJ       0.105000
     18 CAR          1.2860     1.4310     0.6000 c6         1 2CJ       0.142800
     19 CAS          0.8780    -0.9320     0.3090 c6         1 2CJ       0.142800
     20 CAT         -5.8370    -1.1780    -0.5540 c5         1 2CJ      -0.071400
     21 CAU         -5.3550     0.9110    -1.7530 c5         1 2CJ      -0.071400
     22 CAV         -5.4710     0.9620     0.8560 c3         1 2CJ      -0.202400
     23 CAW         -3.4750    -0.1760    -0.3210 c3         1 2CJ      -0.137400
     24 CAX         -5.2330     0.2160     2.1850 c          1 2CJ       0.715000
     25 CAY         -2.4510     0.9880    -0.3190 c          1 2CJ       0.620100
     26 CAZ          3.7980    -1.4400    -0.0140 ca         1 2CJ      -0.073800
     27 CBA          4.2210     1.0050     0.2860 ca         1 2CJ      -0.073800
     28 CBB          3.2200    -0.1300     0.5360 c3         1 2CJ       0.276100
     29 NBC         -1.1000     0.6870    -0.0160 n          1 2CJ      -0.426800
     30 NBD          1.8440     0.1690     0.0400 n3         1 2CJ      -0.722600
     31 CBE         -5.0070     0.1530    -0.4070 c5         1 2CJ       0.004000
     32 HAF          5.4360    -4.2590     1.0460 ha         1 2CJ       0.107000
     33 HAG          4.2080    -3.1710    -2.9460 ha         1 2CJ       0.107000
     34 HAH          6.6600     2.7850     1.9100 ha         1 2CJ       0.107000
     35 HAI          5.2970     3.1440    -2.1690 ha         1 2CJ       0.107000
     36 HAJ          4.4860    -2.1390     1.9220 ha         1 2CJ       0.118750
     37 HAK          3.2510    -1.0500    -2.0780 ha         1 2CJ       0.118750
     38 HAL          5.0270     0.9560     2.3010 ha         1 2CJ       0.118750
     39 HAM          3.6560     1.3190    -1.7860 ha         1 2CJ       0.118750
     40 HAN         -6.6560    -2.1610    -2.3550 hc         1 2CJ       0.023950
     41 HANA        -4.9680    -1.6510    -2.5340 hc         1 2CJ       0.023950
     42 HAO         -6.3900     0.1790    -3.5690 hc         1 2CJ       0.023950
     43 HAOA        -7.4200     0.2320    -2.1340 hc         1 2CJ       0.023950
     44 HAP         -0.4980     2.6540     0.5410 h1         1 2CJ       0.051200
     45 HAPA         0.0610     2.1200    -1.0490 h1         1 2CJ       0.051200
     46 HAQ         -0.4510    -0.7780    -1.3970 h1         1 2CJ       0.051200
     47 HAQA        -1.1950    -1.4540     0.0560 h1         1 2CJ       0.051200
     48 HAR          1.9630     2.2780     0.4220 h1         1 2CJ       0.045450
     49 HARA         1.1730     1.3410     1.6910 h1         1 2CJ       0.045450
     50 HAS          0.7610    -1.0710     1.3940 h1         1 2CJ       0.045450
     51 HASA         1.2430    -1.8870    -0.0940 h1         1 2CJ       0.045450
     52 HAT         -6.8410    -1.0860    -0.1220 hc         1 2CJ       0.045200
     53 HATA        -5.3630    -2.0300    -0.0520 hc         1 2CJ       0.045200
     54 HAU         -4.4690     1.0300    -2.3870 hc         1 2CJ       0.045200
     55 HAUA        -5.7400     1.9230    -1.5800 hc         1 2CJ       0.045200
     56 HAV         -6.5480     1.1250     0.7300 hc         1 2CJ       0.034700
     57 HAVA        -4.9100     1.9020     0.8670 hc         1 2CJ       0.034700
     58 HAW         -3.1720    -0.8400    -1.1380 hc         1 2CJ       0.066200
     59 HAWA        -3.2480    -0.8190     0.5360 hc         1 2CJ       0.066200
     60 HBB          3.1480    -0.2510     1.6260 h1         1 2CJ       0.036700
     61 HAD          5.3010    -4.7820    -1.3880 ha         1 2CJ       0.105000
     62 HAE          6.8010     3.8830    -0.3230 ha         1 2CJ       0.105000
@<TRIPOS>BOND
     1     1    24 1   
     2     2    25 2   
     3     3    24 1   
     4     4     6 ar  
     5     4     7 ar  
     6     4    61 1   
     7     5     8 ar  
     8     5     9 ar  
     9     5    62 1   
    10     6    10 ar  
    11     6    32 1   
    12     7    11 ar  
    13     7    33 1   
    14     8    12 ar  
    15     8    34 1   
    16     9    13 ar  
    17     9    35 1   
    18    10    26 ar  
    19    10    36 1   
    20    11    26 ar  
    21    11    37 1   
    22    12    27 ar  
    23    12    38 1   
    24    13    27 ar  
    25    13    39 1   
    26    14    15 1   
    27    14    20 1   
    28    14    40 1   
    29    14    41 1   
    30    15    21 1   
    31    15    42 1   
    32    15    43 1   
    33    16    18 1   
    34    16    29 1   
    35    16    44 1   
    36    16    45 1   
    37    17    19 1   
    38    17    29 1   
    39    17    46 1   
    40    17    47 1   
    41    18    30 1   
    42    18    48 1   
    43    18    49 1   
    44    19    30 1   
    45    19    50 1   
    46    19    51 1   
    47    20    31 1   
    48    20    52 1   
    49    20    53 1   
    50    21    31 1   
    51    21    54 1   
    52    21    55 1   
    53    22    24 1   
    54    22    31 1   
    55    22    56 1   
    56    22    57 1   
    57    23    25 1   
    58    23    31 1   
    59    23    58 1   
    60    23    59 1   
    61    25    29 1   
    62    26    28 1   
    63    27    28 1   
    64    28    30 1   
    65    28    60 1   
@<TRIPOS>SUBSTRUCTURE
     1 2CJ         1 TEMP              0 ****  ****    0 ROOT
