@<TRIPOS>MOLECULE
2CJ
   62    65     1     0     0
SMALL
abcg2


@<TRIPOS>ATOM
      1 OAA         -4.5040    -1.3250     2.2070 o          1 2CJ      -0.746500
      2 OAB         -2.7370     2.1050    -0.2270 o          1 2CJ      -0.607100
      3 OAC         -5.0520     0.4780     3.3850 o          1 2CJ      -0.746500
      4 CAD          4.8940    -3.7820    -0.6300 ca         1 2CJ      -0.113500
      5 CAE          6.0220     2.9080    -0.1490 ca         1 2CJ      -0.113500
      6 CAF          4.8570    -3.4080     0.7050 ca         1 2CJ      -0.116750
      7 CAG          4.2920    -2.9710    -1.5860 ca         1 2CJ      -0.116750
      8 CAH          5.8620     2.3530     1.1130 ca         1 2CJ      -0.116750
      9 CAI          5.1830     2.5100    -1.1830 ca         1 2CJ      -0.116750
     10 CAJ          4.2230    -2.2300     1.0800 ca         1 2CJ      -0.095000
     11 CAK          3.6650    -1.7930    -1.2090 ca         1 2CJ      -0.095000
     12 CAL          4.8700     1.4060     1.3350 ca         1 2CJ      -0.095000
     13 CAM          4.1980     1.5600    -0.9590 ca         1 2CJ      -0.095000
     14 CAN         -6.1060    -1.1080    -2.0290 c5         1 2CJ      -0.084900
     15 CAO         -6.4510     0.3710    -2.1360 c5         1 2CJ      -0.084900
     16 CAP         -0.0500     1.7560    -0.5940 c6         1 2CJ       0.105000
     17 CAQ         -0.4530    -0.6150    -0.8250 c6         1 2CJ       0.105000
     18 CAR          1.1600     1.4390     0.2640 c6         1 2CJ       0.142800
     19 CAS          0.7710    -0.8770     0.0360 c6         1 2CJ       0.142800
     20 CAT         -5.5850    -1.2220    -0.6000 c5         1 2CJ      -0.071400
     21 CAU         -5.2530     1.0440    -1.4680 c5         1 2CJ      -0.071400
     22 CAV         -5.1770     0.6740     1.0380 c3         1 2CJ      -0.202400
     23 CAW         -3.2960    -0.2250    -0.4440 c3         1 2CJ      -0.137400
     24 CAX         -4.8750    -0.1380     2.3100 c          1 2CJ       0.715000
     25 CAY         -2.3470     0.9550    -0.3890 c          1 2CJ       0.620100
     26 CAZ          3.6250    -1.4100     0.1300 ca         1 2CJ      -0.073800
     27 CBA          4.0320     0.9970     0.3040 ca         1 2CJ      -0.073800
     28 CBB          3.0050    -0.0920     0.5560 c3         1 2CJ       0.276100
     29 NBC         -1.0250     0.6840    -0.5340 n          1 2CJ      -0.426800
     30 NBD          1.7570     0.1760    -0.1400 n3         1 2CJ      -0.722600
     31 CBE         -4.7920     0.0900    -0.3250 c5         1 2CJ       0.004000
     32 HAF          5.3160    -4.0340     1.4590 ha         1 2CJ       0.107000
     33 HAG          4.3100    -3.2590    -2.6290 ha         1 2CJ       0.107000
     34 HAH          6.5050     2.6590     1.9280 ha         1 2CJ       0.107000
     35 HAI          5.2950     2.9440    -2.1690 ha         1 2CJ       0.107000
     36 HAJ          4.1920    -1.9460     2.1260 ha         1 2CJ       0.118750
     37 HAK          3.1870    -1.1760    -1.9600 ha         1 2CJ       0.118750
     38 HAL          4.7470     0.9810     2.3250 ha         1 2CJ       0.118750
     39 HAM          3.5410     1.2670    -1.7690 ha         1 2CJ       0.118750
     40 HAN         -6.9470    -1.7740    -2.2310 hc         1 2CJ       0.023950
     41 HANA        -5.3170    -1.3550    -2.7480 hc         1 2CJ       0.023950
     42 HAO         -6.6110     0.7130    -3.1610 hc         1 2CJ       0.023950
     43 HAOA        -7.3720     0.5810    -1.5810 hc         1 2CJ       0.023950
     44 HAP         -0.5030     2.6830    -0.2550 h1         1 2CJ       0.051200
     45 HAPA         0.2730     1.9020    -1.6310 h1         1 2CJ       0.051200
     46 HAQ         -0.1650    -0.6630    -1.8810 h1         1 2CJ       0.051200
     47 HAQA        -1.1740    -1.4070    -0.6490 h1         1 2CJ       0.051200
     48 HAR          1.8770     2.2500     0.1440 h1         1 2CJ       0.045450
     49 HARA         0.8630     1.4220     1.3260 h1         1 2CJ       0.045450
     50 HAS          0.4620    -0.9710     1.0910 h1         1 2CJ       0.045450
     51 HASA         1.1870    -1.8380    -0.2640 h1         1 2CJ       0.045450
     52 HAT         -6.4330    -1.2840     0.0850 hc         1 2CJ       0.045200
     53 HATA        -4.9840    -2.1160    -0.4330 hc         1 2CJ       0.045200
     54 HAU         -4.4590     1.1600    -2.2120 hc         1 2CJ       0.045200
     55 HAUA        -5.4810     2.0450    -1.1010 hc         1 2CJ       0.045200
     56 HAV         -6.2620     0.8480     1.0240 hc         1 2CJ       0.034700
     57 HAVA        -4.7380     1.6660     1.1580 hc         1 2CJ       0.034700
     58 HAW         -3.1320    -0.7470    -1.3950 hc         1 2CJ       0.066200
     59 HAWA        -3.0330    -0.9410     0.3370 hc         1 2CJ       0.066200
     60 HBB          2.8410    -0.1430     1.6470 h1         1 2CJ       0.036700
     61 HAD          5.3830    -4.7020    -0.9260 ha         1 2CJ       0.105000
     62 HAE          6.7930     3.6480    -0.3240 ha         1 2CJ       0.105000
@<TRIPOS>BOND
     1     1    24 1   
     2     2    25 2   
     3     3    24 1   
     4     4     6 ar  
     5     4     7 ar  
     6     4    61 1   
     7     5     8 ar  
     8     5     9 ar  
     9     5    62 1   
    10     6    10 ar  
    11     6    32 1   
    12     7    11 ar  
    13     7    33 1   
    14     8    12 ar  
    15     8    34 1   
    16     9    13 ar  
    17     9    35 1   
    18    10    26 ar  
    19    10    36 1   
    20    11    26 ar  
    21    11    37 1   
    22    12    27 ar  
    23    12    38 1   
    24    13    27 ar  
    25    13    39 1   
    26    14    15 1   
    27    14    20 1   
    28    14    40 1   
    29    14    41 1   
    30    15    21 1   
    31    15    42 1   
    32    15    43 1   
    33    16    18 1   
    34    16    29 1   
    35    16    44 1   
    36    16    45 1   
    37    17    19 1   
    38    17    29 1   
    39    17    46 1   
    40    17    47 1   
    41    18    30 1   
    42    18    48 1   
    43    18    49 1   
    44    19    30 1   
    45    19    50 1   
    46    19    51 1   
    47    20    31 1   
    48    20    52 1   
    49    20    53 1   
    50    21    31 1   
    51    21    54 1   
    52    21    55 1   
    53    22    24 1   
    54    22    31 1   
    55    22    56 1   
    56    22    57 1   
    57    23    25 1   
    58    23    31 1   
    59    23    58 1   
    60    23    59 1   
    61    25    29 1   
    62    26    28 1   
    63    27    28 1   
    64    28    30 1   
    65    28    60 1   
@<TRIPOS>SUBSTRUCTURE
     1 2CJ         1 TEMP              0 ****  ****    0 ROOT
