@<TRIPOS>MOLECULE
2CK
   21    22     1     0     0
SMALL
bcc


@<TRIPOS>ATOM
      1 CAE          2.3750     0.6650     0.3810 c6         1 2CK       0.158800
      2 CAF          1.1910     1.5140    -0.0500 c6         1 2CK      -0.029100
      3 CAI         -0.0930     0.7270    -0.0220 ca         1 2CK      -0.061300
      4 CAC         -1.3240     1.3830    -0.0490 ca         1 2CK      -0.129000
      5 CAA         -2.5160     0.6770    -0.0300 ca         1 2CK      -0.127000
      6 CAB         -2.4900    -0.7130     0.0200 ca         1 2CK      -0.130000
      7 CAD         -1.2720    -1.3730     0.0480 ca         1 2CK      -0.126000
      8 CAJ         -0.0700    -0.6670     0.0250 ca         1 2CK      -0.075300
      9 CAG          1.2370    -1.4150     0.0880 c6         1 2CK       0.203100
     10 NAH          2.3380    -0.5850    -0.3540 n7         1 2CK      -0.801200
     11 H1           3.3080     1.1850     0.1550 h1         1 2CK       0.031700
     12 H2           2.3440     0.5160     1.4720 h1         1 2CK       0.031700
     13 H3           1.1050     2.3940     0.5930 hc         1 2CK       0.053700
     14 H4           1.3650     1.8870    -1.0640 hc         1 2CK       0.053700
     15 H5          -1.3450     2.4670    -0.0830 ha         1 2CK       0.127000
     16 H6          -3.4600     1.2060    -0.0520 ha         1 2CK       0.129000
     17 H7          -3.4130    -1.2780     0.0350 ha         1 2CK       0.129000
     18 H8          -1.2510    -2.4560     0.0850 ha         1 2CK       0.126000
     19 H9           1.3730    -1.7800     1.1210 h1         1 2CK       0.038200
     20 H10          1.1820    -2.3040    -0.5460 h1         1 2CK       0.038200
     21 H11          3.2050    -1.0890    -0.2230 hn         1 2CK       0.356800
@<TRIPOS>BOND
     1     1     2 1   
     2     1    10 1   
     3     1    11 1   
     4     1    12 1   
     5     2     3 1   
     6     2    13 1   
     7     2    14 1   
     8     3     4 ar  
     9     3     8 ar  
    10     4     5 ar  
    11     4    15 1   
    12     5     6 ar  
    13     5    16 1   
    14     6     7 ar  
    15     6    17 1   
    16     7     8 ar  
    17     7    18 1   
    18     8     9 1   
    19     9    10 1   
    20     9    19 1   
    21     9    20 1   
    22    10    21 1   
@<TRIPOS>SUBSTRUCTURE
     1 2CK         1 TEMP              0 ****  ****    0 ROOT
