@<TRIPOS>MOLECULE
2CK
   21    22     1     0     0
SMALL
No Charge or Current Charge


@<TRIPOS>ATOM
      1 CAE          2.4310     0.6870     0.3420 c6         1 2CK       0.158800
      2 CAF          1.1910     1.5350    -0.0290 c6         1 2CK      -0.029100
      3 CAI         -0.1150     0.7330    -0.0020 ca         1 2CK      -0.061300
      4 CAC         -1.3500     1.4080    -0.0420 ca         1 2CK      -0.111000
      5 CAA         -2.5550     0.6850    -0.0400 ca         1 2CK      -0.109000
      6 CAB         -2.5300    -0.7190     0.0000 ca         1 2CK      -0.112000
      7 CAD         -1.3010    -1.3990     0.0370 ca         1 2CK      -0.108000
      8 CAJ         -0.0890    -0.6820     0.0320 ca         1 2CK      -0.075300
      9 CAG          1.2430    -1.4460     0.0940 c6         1 2CK       0.203100
     10 NAH          2.3960    -0.6230    -0.3430 n7         1 2CK      -0.856400
     11 H1           3.3450     1.2310     0.0640 h1         1 2CK       0.031700
     12 H2           2.4560     0.5280     1.4310 h1         1 2CK       0.031700
     13 H3           1.1230     2.3960     0.6490 hc         1 2CK       0.053700
     14 H4           1.3300     1.9470    -1.0370 hc         1 2CK       0.053700
     15 H5          -1.3760     2.4950    -0.0780 ha         1 2CK       0.109000
     16 H6          -3.5060     1.2120    -0.0700 ha         1 2CK       0.111000
     17 H7          -3.4630    -1.2790     0.0040 ha         1 2CK       0.111000
     18 H8          -1.2900    -2.4860     0.0710 ha         1 2CK       0.108000
     19 H9           1.4060    -1.7770     1.1310 h1         1 2CK       0.038200
     20 H10          1.1810    -2.3470    -0.5340 h1         1 2CK       0.038200
     21 H11          3.2610    -1.1370    -0.1310 hn         1 2CK       0.412000
@<TRIPOS>BOND
     1     1     2 1   
     2     1    10 1   
     3     1    11 1   
     4     1    12 1   
     5     2     3 1   
     6     2    13 1   
     7     2    14 1   
     8     3     4 ar  
     9     3     8 ar  
    10     4     5 ar  
    11     4    15 1   
    12     5     6 ar  
    13     5    16 1   
    14     6     7 ar  
    15     6    17 1   
    16     7     8 ar  
    17     7    18 1   
    18     8     9 1   
    19     9    10 1   
    20     9    19 1   
    21     9    20 1   
    22    10    21 1   
@<TRIPOS>SUBSTRUCTURE
     1 2CK         1 TEMP              0 ****  ****    0 ROOT
