@<TRIPOS>MOLECULE
2CL
   17    17     1     0     0
SMALL
bcc


@<TRIPOS>ATOM
      1 C1           2.9190    -1.6570     2.0060 ca         1 2CL       0.043700
      2 C2           2.8930    -1.6000     0.6120 ca         1 2CL       0.032900
      3 C3           1.8700    -1.0010    -0.1050 ca         1 2CL      -0.129000
      4 C4           0.8070    -0.4360     0.5790 ca         1 2CL      -0.156000
      5 C5           0.7720    -0.4830     1.9630 ca         1 2CL      -0.129000
      6 C6           1.8140    -1.0900     2.6440 ca         1 2CL       0.032900
      7 C7           4.0260    -2.3070     2.7640 c3         1 2CL      -0.203100
      8 C8           3.7510    -3.7990     3.0980 c          1 2CL       0.945600
      9 CL1          4.1880    -2.3220    -0.2960 cl         1 2CL      -0.127400
     10 CL2          1.7140    -1.1470     4.3770 cl         1 2CL      -0.127400
     11 O1           2.6770    -4.2840     2.7080 o          1 2CL      -0.824300
     12 O2           4.6570    -4.3700     3.7320 o          1 2CL      -0.824300
     13 H3           1.9010    -0.9790    -1.1860 ha         1 2CL       0.127500
     14 H4           0.0000     0.0350     0.0340 ha         1 2CL       0.115000
     15 H5          -0.0600    -0.0560     2.5050 ha         1 2CL       0.127500
     16 H71          4.2140    -1.7730     3.6970 hc         1 2CL       0.047700
     17 H72          4.9580    -2.2470     2.2000 hc         1 2CL       0.047700
@<TRIPOS>BOND
     1     1     2 ar  
     2     1     6 ar  
     3     1     7 1   
     4     2     3 ar  
     5     2     9 1   
     6     3     4 ar  
     7     3    13 1   
     8     4     5 ar  
     9     4    14 1   
    10     5     6 ar  
    11     5    15 1   
    12     6    10 1   
    13     7     8 1   
    14     7    16 1   
    15     7    17 1   
    16     8    11 1   
    17     8    12 1   
@<TRIPOS>SUBSTRUCTURE
     1 2CL         1 TEMP              0 ****  ****    0 ROOT
