@<TRIPOS>MOLECULE
2CL
   17    17     1     0     0
SMALL
No Charge or Current Charge


@<TRIPOS>ATOM
      1 C1           2.9460    -1.6650     1.9940 ca         1 2CL       0.043700
      2 C2           2.8310    -1.6690     0.5760 ca         1 2CL       0.124500
      3 C3           1.7360    -1.0540    -0.0560 ca         1 2CL      -0.111000
      4 C4           0.7380    -0.4250     0.7000 ca         1 2CL      -0.138000
      5 C5           0.8350    -0.4110     2.0980 ca         1 2CL      -0.111000
      6 C6           1.9240    -1.0220     2.7450 ca         1 2CL       0.124500
      7 C7           4.1390    -2.3430     2.6950 c3         1 2CL      -0.203100
      8 C8           3.7920    -3.8090     2.9870 c          1 2CL       0.735000
      9 Cl1          4.0370    -2.4290    -0.4700 cl         1 2CL      -0.219000
     10 Cl2          1.9540    -0.9420     4.5110 cl         1 2CL      -0.219000
     11 O1           4.0060    -4.6360     2.1150 o          1 2CL      -0.719000
     12 O2           3.2060    -4.0660     4.0270 o          1 2CL      -0.719000
     13 H3           1.6630    -1.0650    -1.1410 ha         1 2CL       0.109500
     14 H4          -0.1070     0.0490     0.2050 ha         1 2CL       0.097000
     15 H5           0.0620     0.0770     2.6870 ha         1 2CL       0.109500
     16 H71          4.3330    -1.8130     3.6330 hc         1 2CL       0.047700
     17 H72          5.0040    -2.2930     2.0270 hc         1 2CL       0.047700
@<TRIPOS>BOND
     1     1     2 ar  
     2     1     6 ar  
     3     1     7 1   
     4     2     3 ar  
     5     2     9 1   
     6     3     4 ar  
     7     3    13 1   
     8     4     5 ar  
     9     4    14 1   
    10     5     6 ar  
    11     5    15 1   
    12     6    10 1   
    13     7     8 1   
    14     7    16 1   
    15     7    17 1   
    16     8    11 1   
    17     8    12 1   
@<TRIPOS>SUBSTRUCTURE
     1 2CL         1 TEMP              0 ****  ****    0 ROOT
