@<TRIPOS>MOLECULE
2CM
   17    17     1     0     0
SMALL
bcc


@<TRIPOS>ATOM
      1 C1           0.2740    -0.6810     0.0730 ca         1 2CM       0.168600
      2 C2           1.6100    -0.2340     0.0010 ca         1 2CM      -0.138300
      3 C3          -0.7350     0.2880     0.0620 ca         1 2CM      -0.043600
      4 N4          -0.0090    -2.0200     0.2070 nv         1 2CM      -0.821200
      5 C5           1.8720     1.1250    -0.0800 ca         1 2CM      -0.085000
      6 C6           2.7270    -1.2350     0.0210 c3         1 2CM      -0.043800
      7 C7          -0.4620     1.6440    -0.0170 ca         1 2CM      -0.081000
      8 CL8         -2.3960    -0.2270     0.1530 cl         1 2CM      -0.127400
      9 C9           0.8530     2.0700    -0.0900 ca         1 2CM      -0.167000
     10 HN41        -0.9390    -2.3100    -0.0480 hn         1 2CM       0.401800
     11 HN42         0.6870    -2.6560    -0.1470 hn         1 2CM       0.401800
     12 HC5          2.9030     1.4530    -0.1370 ha         1 2CM       0.130000
     13 HC61         2.7030    -1.8510     0.9240 hc         1 2CM       0.040700
     14 HC62         2.6840    -1.9170    -0.8330 hc         1 2CM       0.040700
     15 HC63         3.6950    -0.7380    -0.0120 hc         1 2CM       0.040700
     16 HC7         -1.2770     2.3560    -0.0230 ha         1 2CM       0.144000
     17 HC9          1.0780     3.1260    -0.1530 ha         1 2CM       0.137000
@<TRIPOS>BOND
     1     1     2 ar  
     2     1     3 ar  
     3     1     4 1   
     4     2     5 ar  
     5     2     6 1   
     6     3     7 ar  
     7     3     8 1   
     8     4    10 1   
     9     4    11 1   
    10     5     9 ar  
    11     5    12 1   
    12     6    13 1   
    13     6    14 1   
    14     6    15 1   
    15     7     9 ar  
    16     7    16 1   
    17     9    17 1   
@<TRIPOS>SUBSTRUCTURE
     1 2CM         1 TEMP              0 ****  ****    0 ROOT
