@<TRIPOS>MOLECULE
2CM
   17    17     1     0     0
SMALL
No Charge or Current Charge


@<TRIPOS>ATOM
      1 C1           0.2620    -0.6780     0.0570 ca         1 2CM       0.307000
      2 C2           1.6100    -0.2470    -0.0030 ca         1 2CM      -0.138300
      3 C3          -0.7800     0.2830     0.0480 ca         1 2CM       0.048000
      4 N4          -0.0320    -2.0250     0.1220 nv         1 2CM      -1.070000
      5 C5           1.8950     1.1330    -0.0700 ca         1 2CM      -0.067000
      6 C6           2.7700    -1.2440     0.0040 c3         1 2CM      -0.043800
      7 C7          -0.4810     1.6530    -0.0190 ca         1 2CM      -0.063000
      8 Cl8         -2.4790    -0.2100     0.1160 cl         1 2CM      -0.219000
      9 C9           0.8550     2.0770    -0.0780 ca         1 2CM      -0.149000
     10 HN41        -1.0000    -2.3280     0.0230 hn         1 2CM       0.457000
     11 HN42         0.7000    -2.7130    -0.0400 hn         1 2CM       0.457000
     12 HC5          2.9260     1.4780    -0.1160 ha         1 2CM       0.112000
     13 HC61         2.7540    -1.8640     0.9080 hc         1 2CM       0.040700
     14 HC62         2.7240    -1.9100    -0.8660 hc         1 2CM       0.040700
     15 HC63         3.7430    -0.7380    -0.0260 hc         1 2CM       0.040700
     16 HC7         -1.2850     2.3850    -0.0260 ha         1 2CM       0.126000
     17 HC9          1.0870     3.1390    -0.1300 ha         1 2CM       0.119000
@<TRIPOS>BOND
     1     1     2 ar  
     2     1     3 ar  
     3     1     4 1   
     4     2     5 ar  
     5     2     6 1   
     6     3     7 ar  
     7     3     8 1   
     8     4    10 1   
     9     4    11 1   
    10     5     9 ar  
    11     5    12 1   
    12     6    13 1   
    13     6    14 1   
    14     6    15 1   
    15     7     9 ar  
    16     7    16 1   
    17     9    17 1   
@<TRIPOS>SUBSTRUCTURE
     1 2CM         1 TEMP              0 ****  ****    0 ROOT
