@<TRIPOS>MOLECULE
2CN
   53    54     1     0     0
SMALL
bcc


@<TRIPOS>ATOM
      1 CAA         13.0940     2.6060    -0.2540 c3         1 2CN      -0.088100
      2 OAB         -4.3610     1.7310     3.2850 o          1 2CN      -0.800800
      3 OAC         -2.4720     0.6130     2.9040 o          1 2CN      -0.800800
      4 CAE          1.7320    -3.6950     0.4420 ca         1 2CN      -0.097000
      5 CAF          0.4590    -3.2540     0.1240 ca         1 2CN      -0.154000
      6 CAG         -5.0400     0.1120    -1.3750 ca         1 2CN      -0.116000
      7 CAH          2.8470    -2.8900     0.2330 ca         1 2CN      -0.229000
      8 CAI         -3.7860    -0.3300    -0.9840 ca         1 2CN      -0.182000
      9 CAJ          1.3930    -1.1710    -0.6270 ca         1 2CN      -0.153000
     10 CAK         -5.3160     1.1380     0.7770 ca         1 2CN      -0.068000
     11 CAL         12.1550     1.4400     0.0250 c3         1 2CN      -0.075400
     12 CAM         10.7110     1.7360    -0.3610 c3         1 2CN      -0.075400
     13 CAN          9.7620     0.5790    -0.0740 c3         1 2CN      -0.074400
     14 CAO          8.3180     0.8790    -0.4520 c3         1 2CN      -0.074400
     15 CAP          7.3700    -0.2760    -0.1530 c3         1 2CN      -0.073400
     16 CAQ          5.9240     0.0370    -0.5210 c3         1 2CN      -0.082400
     17 CAR          5.0050    -1.1210    -0.1960 c3         1 2CN       0.146400
     18 OAT          3.6810    -0.7540    -0.5490 os         1 2CN      -0.327900
     19 SAU         -1.6660    -0.6150     0.7630 ss         1 2CN      -0.070000
     20 CAW         -5.8010     0.8490    -0.4840 ca         1 2CN      -0.044900
     21 CAX          0.2870    -1.9830    -0.4230 ca         1 2CN      -0.009300
     22 CAY          2.6760    -1.6170    -0.3050 ca         1 2CN       0.140100
     23 CAZ         -3.2710    -0.0500     0.2850 ca         1 2CN       0.056900
     24 CBA         -4.0590     0.6970     1.1790 ca         1 2CN      -0.133600
     25 HAA         14.1180     2.3770     0.0430 hc         1 2CN       0.030033
     26 HAAA        13.1050     2.8580    -1.3160 hc         1 2CN       0.030033
     27 HAAB        12.7830     3.5000     0.2910 hc         1 2CN       0.030033
     28 HAE          1.8720    -4.6840     0.8610 ha         1 2CN       0.119000
     29 HAF         -0.3990    -3.8920     0.2920 ha         1 2CN       0.136000
     30 HAG         -5.4000    -0.1260    -2.3660 ha         1 2CN       0.119000
     31 HAH          3.8260    -3.2710     0.4890 ha         1 2CN       0.122000
     32 HAI         -3.2240    -0.9050    -1.7040 ha         1 2CN       0.112000
     33 HAJ          1.2680    -0.1780    -1.0450 ha         1 2CN       0.149000
     34 HAK         -5.9010     1.7140     1.4810 ha         1 2CN       0.168000
     35 HAL         12.5000     0.5530    -0.5150 hc         1 2CN       0.035700
     36 HALA        12.1990     1.1820     1.0880 hc         1 2CN       0.035700
     37 HAM         10.3680     2.6280     0.1750 hc         1 2CN       0.037700
     38 HAMA        10.6650     1.9880    -1.4260 hc         1 2CN       0.037700
     39 HAN         10.1020    -0.3120    -0.6130 hc         1 2CN       0.035700
     40 HANA         9.8130     0.3250     0.9910 hc         1 2CN       0.035700
     41 HAO          7.9790     1.7730     0.0850 hc         1 2CN       0.039700
     42 HAOA         8.2630     1.1270    -1.5170 hc         1 2CN       0.039700
     43 HAP          7.7030    -1.1670    -0.6940 hc         1 2CN       0.036700
     44 HAPA         7.4310    -0.5260     0.9120 hc         1 2CN       0.036700
     45 HAQ          5.5920     0.9270     0.0220 hc         1 2CN       0.055200
     46 HAQA         5.8570     0.2700    -1.5870 hc         1 2CN       0.055200
     47 HAR          5.3140    -2.0170    -0.7490 h1         1 2CN       0.029200
     48 HARA         5.0620    -1.3590     0.8730 h1         1 2CN       0.029200
     49 HAS         -1.7500    -2.3010    -0.9970 h1         1 2CN       0.057700
     50 HASA        -1.0530    -0.7840    -1.5900 h1         1 2CN       0.057700
     51 CAV         -3.5950     1.0500     2.5840 c          1 2CN       0.923200
     52 CAS         -1.0860    -1.4730    -0.7450 c3         1 2CN      -0.047000
     53 BRAD        -7.5140     1.4630    -0.9980 br         1 2CN      -0.162100
@<TRIPOS>BOND
     1     1    11 1   
     2     1    25 1   
     3     1    26 1   
     4     1    27 1   
     5     2    51 1   
     6     3    51 1   
     7     4     5 ar  
     8     4     7 ar  
     9     4    28 1   
    10     5    21 ar  
    11     5    29 1   
    12     6     8 ar  
    13     6    20 ar  
    14     6    30 1   
    15     7    22 ar  
    16     7    31 1   
    17     8    23 ar  
    18     8    32 1   
    19     9    21 ar  
    20     9    22 ar  
    21     9    33 1   
    22    10    20 ar  
    23    10    24 ar  
    24    10    34 1   
    25    11    12 1   
    26    11    35 1   
    27    11    36 1   
    28    12    13 1   
    29    12    37 1   
    30    12    38 1   
    31    13    14 1   
    32    13    39 1   
    33    13    40 1   
    34    14    15 1   
    35    14    41 1   
    36    14    42 1   
    37    15    16 1   
    38    15    43 1   
    39    15    44 1   
    40    16    17 1   
    41    16    45 1   
    42    16    46 1   
    43    17    18 1   
    44    17    47 1   
    45    17    48 1   
    46    18    22 1   
    47    19    23 1   
    48    19    52 1   
    49    20    53 1   
    50    21    52 1   
    51    23    24 ar  
    52    24    51 1   
    53    49    52 1   
    54    50    52 1   
@<TRIPOS>SUBSTRUCTURE
     1 2CN         1 TEMP              0 ****  ****    0 ROOT
