@<TRIPOS>MOLECULE
2CN
   53    54     1     0     0
SMALL
No Charge or Current Charge


@<TRIPOS>ATOM
      1 CAA         13.2760     2.6850    -0.4400 c3         1 2CN      -0.088100
      2 OAB         -3.8030     1.9690     2.9890 o          1 2CN      -0.695500
      3 OAC         -3.8730    -0.1580     3.3350 o          1 2CN      -0.695500
      4 CAE          1.6980    -3.7760     0.4540 ca         1 2CN      -0.079000
      5 CAF          0.4230    -3.2820     0.1320 ca         1 2CN      -0.136000
      6 CAG         -5.2060     0.2540    -1.4970 ca         1 2CN      -0.098000
      7 CAH          2.8300    -2.9580     0.2990 ca         1 2CN      -0.211000
      8 CAI         -3.9470    -0.2200    -1.0950 ca         1 2CN      -0.164000
      9 CAJ          1.4070    -1.1520    -0.5000 ca         1 2CN      -0.135000
     10 CAK         -5.6120     1.0850     0.7500 ca         1 2CN      -0.050000
     11 CAL         12.3500     1.4930    -0.1320 c3         1 2CN      -0.075400
     12 CAM         10.8620     1.7940    -0.4140 c3         1 2CN      -0.075400
     13 CAN          9.9340     0.5990    -0.1050 c3         1 2CN      -0.074400
     14 CAO          8.4450     0.9000    -0.3880 c3         1 2CN      -0.074400
     15 CAP          7.5180    -0.2950    -0.0790 c3         1 2CN      -0.073400
     16 CAQ          6.0290     0.0060    -0.3600 c3         1 2CN      -0.082400
     17 CAR          5.1060    -1.1890    -0.0510 c3         1 2CN       0.169600
     18 OAT          3.7590    -0.7880    -0.3510 os         1 2CN      -0.351100
     19 SAU         -1.8780    -0.6180     0.7730 ss         1 2CN       0.009000
     20 CAW         -6.0360     0.9070    -0.5750 ca         1 2CN      -0.044900
     21 CAX          0.2700    -1.9680    -0.3480 ca         1 2CN      -0.009300
     22 CAY          2.6850    -1.6370    -0.1800 ca         1 2CN       0.140100
     23 CAZ         -3.5050    -0.0490     0.2370 ca         1 2CN      -0.070000
     24 CBA         -4.3520     0.6060     1.1680 ca         1 2CN      -0.133600
     25 HAA         14.3190     2.4240    -0.2250 hc         1 2CN       0.030033
     26 HAAA        13.2040     2.9700    -1.4970 hc         1 2CN       0.030033
     27 HAAB        13.0060     3.5540     0.1720 hc         1 2CN       0.030033
     28 HAE          1.8080    -4.7930     0.8240 ha         1 2CN       0.101000
     29 HAF         -0.4480    -3.9220     0.2570 ha         1 2CN       0.118000
     30 HAG         -5.5350     0.1170    -2.5240 ha         1 2CN       0.101000
     31 HAH          3.8040    -3.3630     0.5550 ha         1 2CN       0.104000
     32 HAI         -3.3270    -0.7140    -1.8360 ha         1 2CN       0.094000
     33 HAJ          1.3000    -0.1340    -0.8660 ha         1 2CN       0.131000
     34 HAK         -6.2610     1.5930     1.4610 ha         1 2CN       0.150000
     35 HAL         12.6670     0.6310    -0.7330 hc         1 2CN       0.035700
     36 HALA        12.4700     1.2110     0.9210 hc         1 2CN       0.035700
     37 HAM         10.5490     2.6570     0.1870 hc         1 2CN       0.037700
     38 HAMA        10.7450     2.0780    -1.4680 hc         1 2CN       0.037700
     39 HAN         10.2460    -0.2650    -0.7060 hc         1 2CN       0.035700
     40 HANA        10.0500     0.3150     0.9480 hc         1 2CN       0.035700
     41 HAO          8.1330     1.7630     0.2130 hc         1 2CN       0.039700
     42 HAOA         8.3290     1.1840    -1.4410 hc         1 2CN       0.039700
     43 HAP          7.8300    -1.1590    -0.6800 hc         1 2CN       0.036700
     44 HAPA         7.6340    -0.5790     0.9750 hc         1 2CN       0.036700
     45 HAQ          5.7130     0.8660     0.2420 hc         1 2CN       0.055200
     46 HAQA         5.9090     0.2860    -1.4140 hc         1 2CN       0.055200
     47 HAR          5.4010    -2.0490    -0.6670 h1         1 2CN       0.029200
     48 HARA         5.2030    -1.4620     1.0080 h1         1 2CN       0.029200
     49 HAS         -1.7560    -2.2560    -1.0220 h1         1 2CN       0.057700
     50 HASA        -1.0310    -0.7020    -1.5070 h1         1 2CN       0.057700
     51 CAV         -3.9440     0.8180     2.6030 c          1 2CN       0.712600
     52 CAS         -1.1100    -1.4330    -0.6930 c3         1 2CN       0.000900
     53 BrAD        -7.7470     1.5570    -1.1260 br         1 2CN      -0.162100
@<TRIPOS>BOND
     1     1    11 1   
     2     1    25 1   
     3     1    26 1   
     4     1    27 1   
     5     2    51 1   
     6     3    51 1   
     7     4     5 ar  
     8     4     7 ar  
     9     4    28 1   
    10     5    21 ar  
    11     5    29 1   
    12     6     8 ar  
    13     6    20 ar  
    14     6    30 1   
    15     7    22 ar  
    16     7    31 1   
    17     8    23 ar  
    18     8    32 1   
    19     9    21 ar  
    20     9    22 ar  
    21     9    33 1   
    22    10    20 ar  
    23    10    24 ar  
    24    10    34 1   
    25    11    12 1   
    26    11    35 1   
    27    11    36 1   
    28    12    13 1   
    29    12    37 1   
    30    12    38 1   
    31    13    14 1   
    32    13    39 1   
    33    13    40 1   
    34    14    15 1   
    35    14    41 1   
    36    14    42 1   
    37    15    16 1   
    38    15    43 1   
    39    15    44 1   
    40    16    17 1   
    41    16    45 1   
    42    16    46 1   
    43    17    18 1   
    44    17    47 1   
    45    17    48 1   
    46    18    22 1   
    47    19    23 1   
    48    19    52 1   
    49    20    53 1   
    50    21    52 1   
    51    23    24 ar  
    52    24    51 1   
    53    49    52 1   
    54    50    52 1   
@<TRIPOS>SUBSTRUCTURE
     1 2CN         1 TEMP              0 ****  ****    0 ROOT
