@<TRIPOS>MOLECULE
2CP
   91    93     1     0     0
SMALL
No Charge or Current Charge


@<TRIPOS>ATOM
      1 C8          67.2920    49.2090   -17.1890 cc         1 2CP       0.497700
      2 N9          68.0520    48.1790   -16.6200 na         1 2CP      -0.233300
      3 C4          67.2460    47.0780   -16.5240 ca         1 2CP       0.107500
      4 C5          66.0270    47.4680   -17.0240 ca         1 2CP      -0.078600
      5 N7          66.0280    48.8020   -17.4490 nd         1 2CP      -0.642100
      6 N3          67.4720    45.8270   -16.0720 nb         1 2CP      -0.156000
      7 C2          66.4170    44.9800   -16.1380 ca         1 2CP       0.103900
      8 N1          65.1770    45.2620   -16.6090 nb         1 2CP      -0.349000
      9 C6          64.9840    46.5150   -17.0500 ca         1 2CP       0.395900
     10 N6          63.7400    46.7880   -17.5270 nv         1 2CP      -1.101900
     11 C1          69.4630    48.2630   -16.2430 c5         1 2CP       0.271300
     12 C10         70.2380    49.5680   -16.6100 c5         1 2CP       0.157300
     13 O2          70.4240    49.7920   -18.0260 oh         1 2CP      -0.842000
     14 C3          71.5310    49.3040   -15.7550 c5         1 2CP       0.184300
     15 O3          72.3360    48.2310   -16.3350 os         1 2CP      -0.609400
     16 C7          70.9020    48.7250   -14.4350 c5         1 2CP       0.131300
     17 O4          69.5830    48.2100   -14.8050 os         1 2CP      -0.499000
     18 C9          70.7690    49.7340   -13.2490 c3         1 2CP       0.213600
     19 O5          69.7460    50.7140   -13.5090 os         1 2CP      -0.633400
     20 P1          70.1300    52.2630   -13.7300 p5         1 2CP       1.471800
     21 O11         68.9450    52.9850   -14.2750 o          1 2CP      -0.853000
     22 O12         71.3200    52.3690   -14.6200 o          1 2CP      -0.853000
     23 O6          70.3440    52.6020   -12.2060 os         1 2CP      -0.745800
     24 P2          71.5360    53.5600   -11.8300 p5         1 2CP       1.491800
     25 O21         72.8690    52.9360   -12.0850 o          1 2CP      -0.861000
     26 O22         71.4270    53.9400   -10.3900 o          1 2CP      -0.861000
     27 O7          71.2510    54.8370   -12.7720 os         1 2CP      -0.601400
     28 CPB         70.2300    55.7680   -12.3910 c3         1 2CP       0.229600
     29 CPA         70.1840    56.9470   -13.4170 c3         1 2CP      -0.037000
     30 CP7         71.5840    57.6680   -13.5020 c3         1 2CP       0.098300
     31 CP9         69.0740    57.9360   -12.9570 c3         1 2CP      -0.085100
     32 CP8         69.7870    56.3880   -14.8170 c3         1 2CP      -0.085100
     33 OP3         71.5610    58.7160   -14.5190 oh         1 2CP      -0.685000
     34 CP6         72.0940    58.2100   -12.1240 c          1 2CP       0.556100
     35 OP2         72.7680    57.5440   -11.3490 o          1 2CP      -0.573100
     36 NP2         71.7970    59.5350   -11.8700 ns         1 2CP      -0.528900
     37 CP5         72.2020    60.2790   -10.6780 c3         1 2CP       0.124000
     38 CP4         73.6640    60.7510   -10.7680 c3         1 2CP      -0.188400
     39 CP3         74.0350    61.5740    -9.5380 c          1 2CP       0.597100
     40 OP1         74.2290    61.0680    -8.4430 o          1 2CP      -0.619100
     41 NP1         74.1730    62.9250    -9.7600 ns         1 2CP      -0.515900
     42 CP2         74.5150    63.9120    -8.7290 c3         1 2CP       0.116000
     43 CP1         73.3410    64.1960    -7.7700 c3         1 2CP       0.033600
     44 P3          73.4800    48.6570   -17.3770 p5         1 2CP       1.296900
     45 O31         72.8250    49.3880   -18.4920 o          1 2CP      -0.906500
     46 O32         74.1430    47.4330   -17.8950 o          1 2CP      -0.906500
     47 O33         74.4740    49.5260   -16.6960 o          1 2CP      -0.906500
     48 S           73.8030    65.4870    -6.5260 ss         1 2CP      -0.455000
     49 CS1         72.2230    65.5790    -5.5690 c3         1 2CP       0.111600
     50 CS2         72.3230    66.5990    -4.4140 c3         1 2CP      -0.187700
     51 CS3         71.1110    66.4900    -3.4580 c3         1 2CP      -0.061100
     52 CS4         72.4840    68.0390    -4.9460 c          1 2CP       0.718000
     53 OS4         73.4780    68.6690    -4.6140 o          1 2CP      -0.738000
     54 OS5         71.5900    68.5150    -5.6320 o          1 2CP      -0.738000
     55 H8          67.6980    50.1960   -17.3860 h5         1 2CP       0.145800
     56 H2          66.5830    43.9660   -15.7780 h5         1 2CP       0.007100
     57 H61         63.1400    46.0060   -17.7760 hn         1 2CP       0.477500
     58 H62         63.6240    47.6500   -18.0560 hn         1 2CP       0.477500
     59 H1          69.9550    47.3910   -16.6920 h2         1 2CP       0.088700
     60 H7          69.7050    50.4310   -16.1880 h1         1 2CP       0.045700
     61 HO'2        71.4230    49.6150   -18.2220 ho         1 2CP       0.613000
     62 H3          72.1370    50.2050   -15.5850 h1         1 2CP       0.134700
     63 H4          71.5100    47.8850   -14.0720 h1         1 2CP       0.056700
     64 H5'1        70.5140    49.1680   -12.3440 h1         1 2CP       0.035200
     65 H5'2        71.7460    50.2040   -13.0700 h1         1 2CP       0.035200
     66 HB1         69.2510    55.2700   -12.3650 h1         1 2CP       0.032700
     67 HB2         70.4210    56.1660   -11.3860 h1         1 2CP       0.032700
     68 HP7         72.3230    56.9060   -13.7880 h1         1 2CP       0.123700
     69 HP91        68.9970    58.7950   -13.6350 hc         1 2CP       0.036700
     70 HP92        68.0950    57.4400   -12.9380 hc         1 2CP       0.036700
     71 HP93        69.2690    58.3160   -11.9470 hc         1 2CP       0.036700
     72 HP81        69.6410    57.1950   -15.5440 hc         1 2CP       0.036700
     73 HP82        70.5600    55.7170   -15.2100 hc         1 2CP       0.036700
     74 HP83        68.8480    55.8250   -14.7590 hc         1 2CP       0.036700
     75 HOP3        72.4900    58.9930   -14.6820 ho         1 2CP       0.426000
     76 HN2         71.2660    60.0130   -12.5910 hn         1 2CP       0.318500
     77 HP51        71.5410    61.1500   -10.5720 h1         1 2CP       0.053200
     78 HP52        72.0680    59.6430    -9.7920 h1         1 2CP       0.053200
     79 HP41        74.3150    59.8710   -10.8130 hc         1 2CP       0.068700
     80 HP42        73.7810    61.3520   -11.6770 hc         1 2CP       0.068700
     81 HN1         74.0100    63.2520   -10.7060 hn         1 2CP       0.308500
     82 HP21        75.3770    63.5470    -8.1550 h1         1 2CP       0.061700
     83 HP22        74.8110    64.8460    -9.2240 h1         1 2CP       0.061700
     84 HP11        72.4740    64.5460    -8.3440 h1         1 2CP       0.056700
     85 HP12        73.0610    63.2750    -7.2430 h1         1 2CP       0.056700
     86 HS11        71.4020    65.8510    -6.2450 h1         1 2CP       0.044700
     87 HS12        72.0120    64.5820    -5.1590 h1         1 2CP       0.044700
     88 HS2         73.2150    66.3520    -3.8270 hc         1 2CP       0.042700
     89 HS31        71.2050    67.2100    -2.6360 hc         1 2CP       0.012700
     90 HS32        70.1720    66.6900    -3.9870 hc         1 2CP       0.012700
     91 HS33        71.0520    65.4840    -3.0230 hc         1 2CP       0.012700
@<TRIPOS>BOND
     1     1     2 1   
     2     1     5 2   
     3     1    55 1   
     4     2     3 1   
     5     2    11 1   
     6     3     4 ar  
     7     3     6 ar  
     8     4     5 1   
     9     4     9 ar  
    10     6     7 ar  
    11     7     8 ar  
    12     7    56 1   
    13     8     9 ar  
    14     9    10 1   
    15    10    57 1   
    16    10    58 1   
    17    11    12 1   
    18    11    17 1   
    19    11    59 1   
    20    12    13 1   
    21    12    14 1   
    22    12    60 1   
    23    13    61 1   
    24    14    15 1   
    25    14    16 1   
    26    14    62 1   
    27    15    44 1   
    28    16    17 1   
    29    16    18 1   
    30    16    63 1   
    31    18    19 1   
    32    18    64 1   
    33    18    65 1   
    34    19    20 1   
    35    20    21 1   
    36    20    22 1   
    37    20    23 1   
    38    23    24 1   
    39    24    25 1   
    40    24    26 1   
    41    24    27 1   
    42    27    28 1   
    43    28    29 1   
    44    28    66 1   
    45    28    67 1   
    46    29    30 1   
    47    29    31 1   
    48    29    32 1   
    49    30    33 1   
    50    30    34 1   
    51    30    68 1   
    52    31    69 1   
    53    31    70 1   
    54    31    71 1   
    55    32    72 1   
    56    32    73 1   
    57    32    74 1   
    58    33    75 1   
    59    34    35 2   
    60    34    36 1   
    61    36    37 1   
    62    36    76 1   
    63    37    38 1   
    64    37    77 1   
    65    37    78 1   
    66    38    39 1   
    67    38    79 1   
    68    38    80 1   
    69    39    40 2   
    70    39    41 1   
    71    41    42 1   
    72    41    81 1   
    73    42    43 1   
    74    42    82 1   
    75    42    83 1   
    76    43    48 1   
    77    43    84 1   
    78    43    85 1   
    79    44    45 1   
    80    44    46 1   
    81    44    47 1   
    82    48    49 1   
    83    49    50 1   
    84    49    86 1   
    85    49    87 1   
    86    50    51 1   
    87    50    52 1   
    88    50    88 1   
    89    51    89 1   
    90    51    90 1   
    91    51    91 1   
    92    52    53 1   
    93    52    54 1   
@<TRIPOS>SUBSTRUCTURE
     1 2CP         1 TEMP              0 ****  ****    0 ROOT
