@<TRIPOS>MOLECULE
2CP
   91    93     1     0     0
SMALL
abcg2


@<TRIPOS>ATOM
      1 C8          67.5780    48.7870   -15.8290 cc         1 2CP       0.497700
      2 N9          68.4110    48.1160   -16.7000 na         1 2CP      -0.233300
      3 C4          67.6170    47.2240   -17.3850 ca         1 2CP       0.107500
      4 C5          66.3290    47.4170   -16.8870 ca         1 2CP      -0.078600
      5 N7          66.3290    48.3980   -15.9110 nd         1 2CP      -0.642100
      6 N3          67.9690    46.3490   -18.3340 nb         1 2CP      -0.156000
      7 C2          66.9270    45.6520   -18.7820 ca         1 2CP       0.103900
      8 N1          65.6460    45.7390   -18.4030 nb         1 2CP      -0.349000
      9 C6          65.3090    46.6240   -17.4450 ca         1 2CP       0.395900
     10 N6          64.0260    46.7030   -17.0500 nv         1 2CP      -1.101900
     11 C1          69.8400    48.3010   -16.8670 c5         1 2CP       0.271300
     12 C10         70.2490    49.7590   -17.1180 c5         1 2CP       0.157300
     13 O2          70.1060    50.1140   -18.4660 oh         1 2CP      -0.842000
     14 C3          71.6690    49.7930   -16.5330 c5         1 2CP       0.184300
     15 O3          72.6240    49.2790   -17.4500 os         1 2CP      -0.609400
     16 C7          71.5550    48.8310   -15.3460 c5         1 2CP       0.131300
     17 O4          70.5160    47.8810   -15.6930 os         1 2CP      -0.499000
     18 C9          71.2500    49.4480   -13.9930 c3         1 2CP       0.213600
     19 O5          69.9620    50.0680   -13.9640 os         1 2CP      -0.633400
     20 P1          69.7910    51.6770   -13.8260 p5         1 2CP       1.471800
     21 O11         68.3210    51.9170   -13.9370 o          1 2CP      -0.853000
     22 O12         70.7500    52.3790   -14.7260 o          1 2CP      -0.853000
     23 O6          70.2000    51.8900   -12.2620 os         1 2CP      -0.745800
     24 P2          71.4090    52.6770   -11.4960 p5         1 2CP       1.491800
     25 O21         72.7380    52.2940   -12.0540 o          1 2CP      -0.861000
     26 O22         71.1220    52.5010   -10.0400 o          1 2CP      -0.861000
     27 O7          71.1560    54.2150   -11.9380 os         1 2CP      -0.601400
     28 CPB         70.0040    54.9170   -11.4570 c3         1 2CP       0.229600
     29 CPA         69.7750    56.1890   -12.2790 c3         1 2CP      -0.037000
     30 CP7         71.0400    57.0890   -12.2460 c3         1 2CP       0.098300
     31 CP9         68.5640    56.9170   -11.6830 c3         1 2CP      -0.085100
     32 CP8         69.4810    55.8010   -13.7340 c3         1 2CP      -0.085100
     33 OP3         70.8600    58.1590   -13.1770 oh         1 2CP      -0.685000
     34 CP6         71.3630    57.6270   -10.8460 c          1 2CP       0.556100
     35 OP2         71.8300    56.8970    -9.9690 o          1 2CP      -0.573100
     36 NP2         71.0990    58.9290   -10.6640 ns         1 2CP      -0.528900
     37 CP5         71.4240    59.6580    -9.4530 c3         1 2CP       0.124000
     38 CP4         72.9020    60.0640    -9.4160 c3         1 2CP      -0.188400
     39 CP3         73.2060    60.9740    -8.2440 c          1 2CP       0.597100
     40 OP1         72.7600    60.7510    -7.1160 o          1 2CP      -0.619100
     41 NP1         74.0030    62.0250    -8.5230 ns         1 2CP      -0.515900
     42 CP2         74.3790    63.0320    -7.5480 c3         1 2CP       0.116000
     43 CP1         73.4270    64.2250    -7.5880 c3         1 2CP       0.033600
     44 P3          73.4720    50.3650   -18.4180 p5         1 2CP       1.296900
     45 O31         72.3650    51.1240   -19.1760 o          1 2CP      -0.906500
     46 O32         74.2980    49.4410   -19.2900 o          1 2CP      -0.906500
     47 O33         74.2590    51.2590   -17.4770 o          1 2CP      -0.906500
     48 S           73.9760    65.5080    -6.4180 ss         1 2CP      -0.455000
     49 CS1         72.6560    66.7390    -6.7010 c3         1 2CP       0.111600
     50 CS2         72.9420    68.0330    -5.9470 c3         1 2CP      -0.187700
     51 CS3         71.7200    68.9580    -6.0250 c3         1 2CP      -0.061100
     52 CS4         74.1870    68.7750    -6.4960 c          1 2CP       0.718000
     53 OS4         75.0160    69.1980    -5.6480 o          1 2CP      -0.738000
     54 OS5         74.2570    68.9330    -7.7420 o          1 2CP      -0.738000
     55 H8          67.9610    49.5380   -15.1560 h5         1 2CP       0.145800
     56 H2          67.1370    44.9190   -19.5540 h5         1 2CP       0.007100
     57 H61         63.3220    46.1890   -17.5530 hn         1 2CP       0.477500
     58 H62         63.7350    47.4270   -16.4160 hn         1 2CP       0.477500
     59 H1          70.1260    47.6830   -17.7200 h2         1 2CP       0.088700
     60 H7          69.6270    50.4020   -16.4890 h1         1 2CP       0.045700
     61 HO'2        70.9790    50.5180   -18.7900 ho         1 2CP       0.613000
     62 H3          71.9390    50.7940   -16.2010 h1         1 2CP       0.134700
     63 H4          72.4950    48.2820   -15.2520 h1         1 2CP       0.056700
     64 H5'1        71.2400    48.6570   -13.2400 h1         1 2CP       0.035200
     65 H5'2        72.0360    50.1600   -13.7350 h1         1 2CP       0.035200
     66 HB1         69.1180    54.2840   -11.5550 h1         1 2CP       0.032700
     67 HB2         70.1490    55.1570   -10.4040 h1         1 2CP       0.032700
     68 HP7         71.8930    56.4750   -12.5420 h1         1 2CP       0.123700
     69 HP91        68.3810    57.8550   -12.2070 hc         1 2CP       0.036700
     70 HP92        67.6710    56.2960   -11.7810 hc         1 2CP       0.036700
     71 HP93        68.7060    57.1390   -10.6240 hc         1 2CP       0.036700
     72 HP81        69.2140    56.6760   -14.3240 hc         1 2CP       0.036700
     73 HP82        70.3430    55.3220   -14.1950 hc         1 2CP       0.036700
     74 HP83        68.6480    55.0960   -13.7610 hc         1 2CP       0.036700
     75 HOP3        71.7280    58.4480   -13.4830 ho         1 2CP       0.426000
     76 HN2         70.7820    59.4410   -11.4740 hn         1 2CP       0.318500
     77 HP51        70.7910    60.5450    -9.4240 h1         1 2CP       0.053200
     78 HP52        71.1830    59.0420    -8.5890 h1         1 2CP       0.053200
     79 HP41        73.5190    59.1680    -9.3150 hc         1 2CP       0.068700
     80 HP42        73.1730    60.5440   -10.3570 hc         1 2CP       0.068700
     81 HN1         74.2810    62.1710    -9.4800 hn         1 2CP       0.308500
     82 HP21        74.3680    62.5710    -6.5610 h1         1 2CP       0.061700
     83 HP22        75.3980    63.3540    -7.7640 h1         1 2CP       0.061700
     84 HP11        73.4050    64.6520    -8.5920 h1         1 2CP       0.056700
     85 HP12        72.4180    63.9060    -7.3230 h1         1 2CP       0.056700
     86 HS11        72.6020    66.9400    -7.7710 h1         1 2CP       0.044700
     87 HS12        71.7100    66.3050    -6.3730 h1         1 2CP       0.044700
     88 HS2         73.1340    67.8000    -4.8970 hc         1 2CP       0.042700
     89 HS31        71.9050    69.8880    -5.4840 hc         1 2CP       0.012700
     90 HS32        71.4920    69.2060    -7.0630 hc         1 2CP       0.012700
     91 HS33        70.8420    68.4780    -5.5870 hc         1 2CP       0.012700
@<TRIPOS>BOND
     1     1     2 1   
     2     1     5 2   
     3     1    55 1   
     4     2     3 1   
     5     2    11 1   
     6     3     4 ar  
     7     3     6 ar  
     8     4     5 1   
     9     4     9 ar  
    10     6     7 ar  
    11     7     8 ar  
    12     7    56 1   
    13     8     9 ar  
    14     9    10 1   
    15    10    57 1   
    16    10    58 1   
    17    11    12 1   
    18    11    17 1   
    19    11    59 1   
    20    12    13 1   
    21    12    14 1   
    22    12    60 1   
    23    13    61 1   
    24    14    15 1   
    25    14    16 1   
    26    14    62 1   
    27    15    44 1   
    28    16    17 1   
    29    16    18 1   
    30    16    63 1   
    31    18    19 1   
    32    18    64 1   
    33    18    65 1   
    34    19    20 1   
    35    20    21 1   
    36    20    22 1   
    37    20    23 1   
    38    23    24 1   
    39    24    25 1   
    40    24    26 1   
    41    24    27 1   
    42    27    28 1   
    43    28    29 1   
    44    28    66 1   
    45    28    67 1   
    46    29    30 1   
    47    29    31 1   
    48    29    32 1   
    49    30    33 1   
    50    30    34 1   
    51    30    68 1   
    52    31    69 1   
    53    31    70 1   
    54    31    71 1   
    55    32    72 1   
    56    32    73 1   
    57    32    74 1   
    58    33    75 1   
    59    34    35 2   
    60    34    36 1   
    61    36    37 1   
    62    36    76 1   
    63    37    38 1   
    64    37    77 1   
    65    37    78 1   
    66    38    39 1   
    67    38    79 1   
    68    38    80 1   
    69    39    40 2   
    70    39    41 1   
    71    41    42 1   
    72    41    81 1   
    73    42    43 1   
    74    42    82 1   
    75    42    83 1   
    76    43    48 1   
    77    43    84 1   
    78    43    85 1   
    79    44    45 1   
    80    44    46 1   
    81    44    47 1   
    82    48    49 1   
    83    49    50 1   
    84    49    86 1   
    85    49    87 1   
    86    50    51 1   
    87    50    52 1   
    88    50    88 1   
    89    51    89 1   
    90    51    90 1   
    91    51    91 1   
    92    52    53 1   
    93    52    54 1   
@<TRIPOS>SUBSTRUCTURE
     1 2CP         1 TEMP              0 ****  ****    0 ROOT
