@<TRIPOS>MOLECULE
2CQ
   19    19     1     0     0
SMALL
No Charge or Current Charge


@<TRIPOS>ATOM
      1 NAB          3.0380    -1.0090    -0.0680 nv         1 2CQ      -1.056000
      2 CAH          1.7320    -0.5470    -0.0100 ca         1 2CQ       0.234000
      3 CAE          0.6930    -1.4940     0.0140 ca         1 2CQ      -0.142000
      4 CAG         -0.6560    -1.0890     0.0530 ca         1 2CQ      -0.063300
      5 CAA         -1.7620    -2.1390     0.0760 c3         1 2CQ      -0.040800
      6 CAJ         -0.9610     0.2890     0.0660 ca         1 2CQ       0.119000
      7 Cl          -2.6340     0.8480     0.1120 cl         1 2CQ      -0.216000
      8 CAF          0.0660     1.2460     0.0470 ca         1 2CQ      -0.136000
      9 CAI          1.4120     0.8500     0.0130 ca         1 2CQ       0.226000
     10 NAC          2.3880     1.8370     0.0140 nv         1 2CQ      -1.055000
     11 H1           3.7700    -0.3670    -0.3610 hn         1 2CQ       0.439500
     12 H2           3.2110    -1.9990    -0.2350 hn         1 2CQ       0.439500
     13 H3           0.9350    -2.5540    -0.0010 ha         1 2CQ       0.113000
     14 H4          -2.3770    -2.0430     0.9780 hc         1 2CQ       0.046033
     15 H5          -2.4210    -2.0360    -0.7950 hc         1 2CQ       0.046033
     16 H6          -1.3580    -3.1580     0.0620 hc         1 2CQ       0.046033
     17 H7          -0.1910     2.3010     0.0630 ha         1 2CQ       0.126000
     18 H8           3.3420     1.5810     0.2610 hn         1 2CQ       0.437500
     19 H9           2.1220     2.8060     0.1800 hn         1 2CQ       0.437500
@<TRIPOS>BOND
     1     1     2 1   
     2     1    11 1   
     3     1    12 1   
     4     2     3 ar  
     5     2     9 ar  
     6     3     4 ar  
     7     3    13 1   
     8     4     5 1   
     9     4     6 ar  
    10     5    14 1   
    11     5    15 1   
    12     5    16 1   
    13     6     7 1   
    14     6     8 ar  
    15     8     9 ar  
    16     8    17 1   
    17     9    10 1   
    18    10    18 1   
    19    10    19 1   
@<TRIPOS>SUBSTRUCTURE
     1 2CQ         1 TEMP              0 ****  ****    0 ROOT
