@<TRIPOS>MOLECULE
2CQ
   19    19     1     0     0
SMALL
abcg2


@<TRIPOS>ATOM
      1 NAB          3.0560    -0.9250    -0.0080 nv         1 2CQ      -1.056000
      2 CAH          1.7210    -0.5370    -0.0110 ca         1 2CQ       0.234000
      3 CAE          0.6820    -1.4590     0.0200 ca         1 2CQ      -0.142000
      4 CAG         -0.6630    -1.0890     0.0570 ca         1 2CQ      -0.063300
      5 CAA         -1.7460    -2.1250     0.0840 c3         1 2CQ      -0.040800
      6 CAJ         -0.9320     0.2720     0.0530 ca         1 2CQ       0.119000
      7 CL          -2.5830     0.8270     0.0840 cl         1 2CQ      -0.216000
      8 CAF          0.0790     1.2240     0.0370 ca         1 2CQ      -0.136000
      9 CAI          1.4120     0.8380     0.0100 ca         1 2CQ       0.226000
     10 NAC          2.4510     1.7630    -0.0500 nv         1 2CQ      -1.055000
     11 H1           3.6420    -0.3750    -0.6200 hn         1 2CQ       0.439500
     12 H2           3.1940    -1.9060    -0.1950 hn         1 2CQ       0.439500
     13 H3           0.9260    -2.5160     0.0030 ha         1 2CQ       0.113000
     14 H4          -2.3610    -2.0430     0.9820 hc         1 2CQ       0.046033
     15 H5          -2.4180    -2.0300    -0.7710 hc         1 2CQ       0.046033
     16 H6          -1.3220    -3.1270     0.0630 hc         1 2CQ       0.046033
     17 H7          -0.1690     2.2790     0.0550 ha         1 2CQ       0.126000
     18 H8           3.2260     1.5400     0.5600 hn         1 2CQ       0.437500
     19 H9           2.1540     2.7130     0.1150 hn         1 2CQ       0.437500
@<TRIPOS>BOND
     1     1     2 1   
     2     1    11 1   
     3     1    12 1   
     4     2     3 ar  
     5     2     9 ar  
     6     3     4 ar  
     7     3    13 1   
     8     4     5 1   
     9     4     6 ar  
    10     5    14 1   
    11     5    15 1   
    12     5    16 1   
    13     6     7 1   
    14     6     8 ar  
    15     8     9 ar  
    16     8    17 1   
    17     9    10 1   
    18    10    18 1   
    19    10    19 1   
@<TRIPOS>SUBSTRUCTURE
     1 2CQ         1 TEMP              0 ****  ****    0 ROOT
