@<TRIPOS>MOLECULE
2CR
   77    78     1     0     0
SMALL
No Charge or Current Charge


@<TRIPOS>ATOM
      1 C1           3.4650    -0.0370    -0.2890 c5         1 2CR      -0.071700
      2 C2           4.3460    -1.2220    -0.7990 c5         1 2CR      -0.188700
      3 C3           4.4410    -0.9570    -2.3410 c5         1 2CR      -0.057400
      4 C4           3.2290    -0.0250    -2.6700 c5         1 2CR      -0.079400
      5 C5           2.3600    -0.0540    -1.3840 c5         1 2CR      -0.077400
      6 C6           3.0280    -0.0890     1.2220 c3         1 2CR       0.203300
      7 C7           2.5440    -1.4590     1.7830 c3         1 2CR      -0.058200
      8 C8           1.3470    -2.0690     1.0790 c2         1 2CR      -0.106200
      9 C9           0.0760    -2.0890     1.5340 ce         1 2CR      -0.266000
     10 C10         -1.0350    -2.6570     0.7530 ce         1 2CR      -0.067000
     11 C11         -2.2990    -2.9360     1.2030 cf         1 2CR      -0.119900
     12 C12         -2.6840    -2.7480     2.5690 ch         1 2CR       0.307700
     13 C13         -3.4170    -3.4600     0.2930 c3         1 2CR       0.235500
     14 C14         -4.3950    -2.3570    -0.2370 c3         1 2CR      -0.050700
     15 C15         -5.4950    -2.0220     0.8060 c3         1 2CR      -0.090100
     16 C16         -3.6360    -1.0800    -0.7240 c3         1 2CR      -0.071400
     17 C17         -4.4890     0.0520    -1.3800 c3         1 2CR      -0.055700
     18 C18         -5.1260    -0.4070    -2.7140 c3         1 2CR      -0.087100
     19 C19         -3.6830     1.3740    -1.5890 c3         1 2CR      -0.068400
     20 C20         -3.0250     2.0120    -0.3230 c3         1 2CR      -0.064700
     21 C21         -4.0440     2.1960     0.8370 c3         1 2CR      -0.086100
     22 C22         -2.3140     3.3550    -0.6750 c3         1 2CR      -0.073400
     23 C23         -1.2420     3.8240     0.3590 c3         1 2CR      -0.096700
     24 C24         -1.0360     5.3630     0.2960 c3         1 2CR      -0.078100
     25 C25          0.0910     3.0110     0.2470 c3         1 2CR       0.179300
     26 C26          0.9260     3.0220     1.5460 c3         1 2CR      -0.134400
     27 C27          2.2060     2.2020     1.3950 c          1 2CR       0.603100
     28 O28          3.3100     2.6990     1.2200 o          1 2CR      -0.468000
     29 O29          1.9510     0.8520     1.4420 os         1 2CR      -0.475100
     30 C30          5.7530    -1.2180    -0.1300 c          1 2CR       0.717000
     31 O31          6.4480    -0.2130    -0.1780 o          1 2CR      -0.731000
     32 O32          6.1190    -2.2250     0.4560 o          1 2CR      -0.731000
     33 O33         -2.8810    -4.1850    -0.8210 oh         1 2CR      -0.658000
     34 O34          0.8800     3.5150    -0.8360 oh         1 2CR      -0.650000
     35 N35         -3.0040    -2.6360     3.6860 n1         1 2CR      -0.497000
     36 H1           4.0360     0.8930    -0.3860 hc         1 2CR       0.086700
     37 H2           3.8670    -2.1920    -0.6230 hc         1 2CR       0.024700
     38 H3           5.3820    -0.4730    -2.6280 hc         1 2CR       0.031700
     39 H4           4.3920    -1.8970    -2.9030 hc         1 2CR       0.031700
     40 H5           3.5720     0.9950    -2.8840 hc         1 2CR       0.031200
     41 H6           2.6720    -0.3630    -3.5500 hc         1 2CR       0.031200
     42 H7           1.7300    -0.9460    -1.3590 hc         1 2CR       0.023700
     43 H8           1.6940     0.8130    -1.3260 hc         1 2CR       0.023700
     44 H9           3.9020     0.1950     1.8250 h1         1 2CR       0.095700
     45 H10          3.3820    -2.1650     1.7540 hc         1 2CR       0.063700
     46 H11          2.3170    -1.3280     2.8480 hc         1 2CR       0.063700
     47 H12          1.5900    -2.5420     0.1260 ha         1 2CR       0.183000
     48 H14         -0.1590    -1.6430     2.5020 ha         1 2CR       0.183000
     49 H16         -0.8150    -2.8390    -0.3000 ha         1 2CR       0.187000
     50 H17         -3.9980    -4.1680     0.9010 h1         1 2CR       0.033700
     51 H18         -4.9170    -2.7930    -1.0970 hc         1 2CR       0.057700
     52 H19         -5.0900    -1.4300     1.6350 hc         1 2CR       0.034700
     53 H20         -6.3110    -1.4530     0.3480 hc         1 2CR       0.034700
     54 H21         -5.9330    -2.9390     1.2190 hc         1 2CR       0.034700
     55 H22         -3.1210    -0.6680     0.1480 hc         1 2CR       0.052200
     56 H23         -2.8510    -1.3770    -1.4300 hc         1 2CR       0.052200
     57 H24         -5.3210     0.2940    -0.7110 hc         1 2CR       0.041700
     58 H25         -5.8120    -1.2470    -2.5580 hc         1 2CR       0.030367
     59 H26         -5.7030     0.4070    -3.1670 hc         1 2CR       0.030367
     60 H27         -4.3540    -0.7190    -3.4290 hc         1 2CR       0.030367
     61 H28         -2.8970     1.1860    -2.3310 hc         1 2CR       0.035700
     62 H29         -4.3530     2.1190    -2.0360 hc         1 2CR       0.035700
     63 H30         -2.2510     1.3220     0.0270 hc         1 2CR       0.057700
     64 H31         -4.4300     1.2310     1.1820 hc         1 2CR       0.030700
     65 H32         -3.5890     2.6800     1.7070 hc         1 2CR       0.030700
     66 H33         -4.8930     2.8100     0.5130 hc         1 2CR       0.030700
     67 H34         -1.8390     3.2730    -1.6600 hc         1 2CR       0.035200
     68 H35         -3.0850     4.1290    -0.7810 hc         1 2CR       0.035200
     69 H36         -1.6430     3.6290     1.3590 hc         1 2CR       0.051700
     70 H37         -1.9750     5.8830     0.5200 hc         1 2CR       0.033367
     71 H38         -0.2920     5.6950     1.0290 hc         1 2CR       0.033367
     72 H39         -0.7070     5.6830    -0.7000 hc         1 2CR       0.033367
     73 H40         -0.1610     1.9610     0.0480 h1         1 2CR       0.050700
     74 H41          1.1760     4.0470     1.8390 hc         1 2CR       0.068700
     75 H42          0.3010     2.5360     2.3040 hc         1 2CR       0.068700
     76 H44         -2.4280    -4.9740    -0.4510 ho         1 2CR       0.447000
     77 H45          0.2820     3.5950    -1.6080 ho         1 2CR       0.440000
@<TRIPOS>BOND
     1     1     2 1   
     2     1     5 1   
     3     1     6 1   
     4     1    36 1   
     5     2     3 1   
     6     2    30 1   
     7     2    37 1   
     8     3     4 1   
     9     3    38 1   
    10     3    39 1   
    11     4     5 1   
    12     4    40 1   
    13     4    41 1   
    14     5    42 1   
    15     5    43 1   
    16     6     7 1   
    17     6    29 1   
    18     6    44 1   
    19     7     8 1   
    20     7    45 1   
    21     7    46 1   
    22     8     9 2   
    23     8    47 1   
    24     9    10 1   
    25     9    48 1   
    26    10    11 2   
    27    10    49 1   
    28    11    12 1   
    29    11    13 1   
    30    12    35 3   
    31    13    14 1   
    32    13    33 1   
    33    13    50 1   
    34    14    15 1   
    35    14    16 1   
    36    14    51 1   
    37    15    52 1   
    38    15    53 1   
    39    15    54 1   
    40    16    17 1   
    41    16    55 1   
    42    16    56 1   
    43    17    18 1   
    44    17    19 1   
    45    17    57 1   
    46    18    58 1   
    47    18    59 1   
    48    18    60 1   
    49    19    20 1   
    50    19    61 1   
    51    19    62 1   
    52    20    21 1   
    53    20    22 1   
    54    20    63 1   
    55    21    64 1   
    56    21    65 1   
    57    21    66 1   
    58    22    23 1   
    59    22    67 1   
    60    22    68 1   
    61    23    24 1   
    62    23    25 1   
    63    23    69 1   
    64    24    70 1   
    65    24    71 1   
    66    24    72 1   
    67    25    26 1   
    68    25    34 1   
    69    25    73 1   
    70    26    27 1   
    71    26    74 1   
    72    26    75 1   
    73    27    28 2   
    74    27    29 1   
    75    30    31 1   
    76    30    32 1   
    77    33    76 1   
    78    34    77 1   
@<TRIPOS>SUBSTRUCTURE
     1 2CR         1 TEMP              0 ****  ****    0 ROOT
