@<TRIPOS>MOLECULE
2CR
   77    78     1     0     0
SMALL
abcg2


@<TRIPOS>ATOM
      1 C1           3.4120     0.0140    -0.2870 c5         1 2CR      -0.071700
      2 C2           4.2590    -1.2200    -0.7220 c5         1 2CR      -0.188700
      3 C3           3.7010    -1.6350    -2.0900 c5         1 2CR      -0.057400
      4 C4           2.9390    -0.4160    -2.5980 c5         1 2CR      -0.079400
      5 C5           2.2930     0.1380    -1.3330 c5         1 2CR      -0.077400
      6 C6           2.9800     0.0220     1.1820 c3         1 2CR       0.203300
      7 C7           2.4740    -1.2900     1.7920 c3         1 2CR      -0.058200
      8 C8           1.3600    -1.9440     1.0530 c2         1 2CR      -0.106200
      9 C9           0.1080    -2.0730     1.5080 ce         1 2CR      -0.266000
     10 C10         -0.9240    -2.6620     0.6890 ce         1 2CR      -0.067000
     11 C11         -2.2050    -2.8870     1.0370 cf         1 2CR      -0.119900
     12 C12         -2.6260    -2.6130     2.3680 ch         1 2CR       0.307700
     13 C13         -3.2570    -3.4020     0.0640 c3         1 2CR       0.235500
     14 C14         -4.2360    -2.2960    -0.3910 c3         1 2CR      -0.050700
     15 C15         -5.3410    -2.0610     0.6350 c3         1 2CR      -0.090100
     16 C16         -3.5020    -1.0010    -0.7440 c3         1 2CR      -0.071400
     17 C17         -4.3460     0.0910    -1.4010 c3         1 2CR      -0.055700
     18 C18         -4.8630    -0.3420    -2.7700 c3         1 2CR      -0.087100
     19 C19         -3.5490     1.3940    -1.5340 c3         1 2CR      -0.068400
     20 C20         -2.9810     1.9810    -0.2380 c3         1 2CR      -0.064700
     21 C21         -4.0490     2.1190     0.8440 c3         1 2CR      -0.086100
     22 C22         -2.3130     3.3340    -0.5120 c3         1 2CR      -0.073400
     23 C23         -1.2880     3.7640     0.5480 c3         1 2CR      -0.096700
     24 C24         -1.0740     5.2730     0.5120 c3         1 2CR      -0.078100
     25 C25          0.0240     2.9760     0.3970 c3         1 2CR       0.179300
     26 C26          0.8940     3.0540     1.6470 c3         1 2CR      -0.134400
     27 C27          2.1650     2.2560     1.4980 c          1 2CR       0.603100
     28 O28          3.2760     2.7270     1.5090 o          1 2CR      -0.468000
     29 O29          1.9050     0.9640     1.3700 os         1 2CR      -0.475100
     30 C30          5.7640    -0.8950    -0.6610 c          1 2CR       0.717000
     31 O31          6.4730    -1.1330    -1.6590 o          1 2CR      -0.731000
     32 O32          6.1600    -0.4230     0.4260 o          1 2CR      -0.731000
     33 O33         -2.6540    -3.9310    -1.0870 oh         1 2CR      -0.658000
     34 O34          0.8210     3.4420    -0.6740 oh         1 2CR      -0.650000
     35 N35         -2.9720    -2.4170     3.4520 n1         1 2CR      -0.497000
     36 H1           4.0430     0.8990    -0.4080 hc         1 2CR       0.086700
     37 H2           4.1210    -2.0460    -0.0180 hc         1 2CR       0.024700
     38 H3           4.4870    -1.9720    -2.7650 hc         1 2CR       0.031700
     39 H4           2.9990    -2.4660    -1.9690 hc         1 2CR       0.031700
     40 H5           3.6350     0.3180    -3.0160 hc         1 2CR       0.031200
     41 H6           2.2140    -0.6520    -3.3800 hc         1 2CR       0.031200
     42 H7           1.4160    -0.4570    -1.0690 hc         1 2CR       0.023700
     43 H8           1.9520     1.1680    -1.4470 hc         1 2CR       0.023700
     44 H9           3.8380     0.3330     1.7820 h1         1 2CR       0.095700
     45 H10          3.3230    -1.9740     1.8510 hc         1 2CR       0.063700
     46 H11          2.1750    -1.0860     2.8230 hc         1 2CR       0.063700
     47 H12          1.5920    -2.3520     0.0730 ha         1 2CR       0.183000
     48 H14         -0.1490    -1.6960     2.4930 ha         1 2CR       0.183000
     49 H16         -0.6350    -2.9190    -0.3240 ha         1 2CR       0.187000
     50 H17         -3.8430    -4.1760     0.5790 h1         1 2CR       0.033700
     51 H18         -4.7100    -2.7040    -1.2890 hc         1 2CR       0.057700
     52 H19         -4.9850    -1.5240     1.5160 hc         1 2CR       0.034700
     53 H20         -6.1490    -1.4680     0.2060 hc         1 2CR       0.034700
     54 H21         -5.7790    -3.0010     0.9740 hc         1 2CR       0.034700
     55 H22         -3.0660    -0.6070     0.1780 hc         1 2CR       0.052200
     56 H23         -2.6540    -1.2210    -1.4020 hc         1 2CR       0.052200
     57 H24         -5.2160     0.3000    -0.7690 hc         1 2CR       0.041700
     58 H25         -5.5320    -1.2010    -2.7050 hc         1 2CR       0.030367
     59 H26         -5.4180     0.4640    -3.2530 hc         1 2CR       0.030367
     60 H27         -4.0350    -0.6160    -3.4300 hc         1 2CR       0.030367
     61 H28         -2.7250     1.2350    -2.2400 hc         1 2CR       0.035700
     62 H29         -4.1980     2.1460    -2.0000 hc         1 2CR       0.035700
     63 H30         -2.2090     1.3010     0.1410 hc         1 2CR       0.057700
     64 H31         -4.4190     1.1480     1.1770 hc         1 2CR       0.030700
     65 H32         -3.6670     2.6350     1.7260 hc         1 2CR       0.030700
     66 H33         -4.9050     2.6890     0.4750 hc         1 2CR       0.030700
     67 H34         -1.8310     3.3160    -1.4990 hc         1 2CR       0.035200
     68 H35         -3.0920     4.1000    -0.5940 hc         1 2CR       0.035200
     69 H36         -1.6920     3.5010     1.5330 hc         1 2CR       0.051700
     70 H37         -2.0030     5.7880     0.7610 hc         1 2CR       0.033367
     71 H38         -0.3180     5.6060     1.2240 hc         1 2CR       0.033367
     72 H39         -0.7680     5.6110    -0.4780 hc         1 2CR       0.033367
     73 H40         -0.2310     1.9190     0.2400 h1         1 2CR       0.050700
     74 H41          1.1620     4.0870     1.8730 hc         1 2CR       0.068700
     75 H42          0.3260     2.6630     2.4940 hc         1 2CR       0.068700
     76 H44         -2.1600    -4.7210    -0.8420 ho         1 2CR       0.447000
     77 H45          0.3620     3.2730    -1.5020 ho         1 2CR       0.440000
@<TRIPOS>BOND
     1     1     2 1   
     2     1     5 1   
     3     1     6 1   
     4     1    36 1   
     5     2     3 1   
     6     2    30 1   
     7     2    37 1   
     8     3     4 1   
     9     3    38 1   
    10     3    39 1   
    11     4     5 1   
    12     4    40 1   
    13     4    41 1   
    14     5    42 1   
    15     5    43 1   
    16     6     7 1   
    17     6    29 1   
    18     6    44 1   
    19     7     8 1   
    20     7    45 1   
    21     7    46 1   
    22     8     9 2   
    23     8    47 1   
    24     9    10 1   
    25     9    48 1   
    26    10    11 2   
    27    10    49 1   
    28    11    12 1   
    29    11    13 1   
    30    12    35 3   
    31    13    14 1   
    32    13    33 1   
    33    13    50 1   
    34    14    15 1   
    35    14    16 1   
    36    14    51 1   
    37    15    52 1   
    38    15    53 1   
    39    15    54 1   
    40    16    17 1   
    41    16    55 1   
    42    16    56 1   
    43    17    18 1   
    44    17    19 1   
    45    17    57 1   
    46    18    58 1   
    47    18    59 1   
    48    18    60 1   
    49    19    20 1   
    50    19    61 1   
    51    19    62 1   
    52    20    21 1   
    53    20    22 1   
    54    20    63 1   
    55    21    64 1   
    56    21    65 1   
    57    21    66 1   
    58    22    23 1   
    59    22    67 1   
    60    22    68 1   
    61    23    24 1   
    62    23    25 1   
    63    23    69 1   
    64    24    70 1   
    65    24    71 1   
    66    24    72 1   
    67    25    26 1   
    68    25    34 1   
    69    25    73 1   
    70    26    27 1   
    71    26    74 1   
    72    26    75 1   
    73    27    28 2   
    74    27    29 1   
    75    30    31 1   
    76    30    32 1   
    77    33    76 1   
    78    34    77 1   
@<TRIPOS>SUBSTRUCTURE
     1 2CR         1 TEMP              0 ****  ****    0 ROOT
