@<TRIPOS>MOLECULE
2CS
   75    79     1     0     0
SMALL
No Charge or Current Charge


@<TRIPOS>ATOM
      1 C1          -5.0000    -1.2880    -1.0630 c3         1 2CS      -0.065600
      2 C2          -5.0780     0.2590    -1.0360 c3         1 2CS      -0.173000
      3 C3          -6.5980     0.6510    -1.0120 c          1 2CS       0.724000
      4 O4          -7.1630     0.7460     0.0700 o          1 2CS      -0.727000
      5 O5          -7.1500     0.9630    -2.0580 o          1 2CS      -0.727000
      6 C7          -4.3630     0.8300     0.2410 c3         1 2CS      -0.027200
      7 C8          -2.8700     0.5770     0.3700 cc         1 2CS       0.080700
      8 C11         -2.9800    -2.9760     1.0810 ca         1 2CS      -0.089300
      9 C12         -3.8910    -3.9300     1.5780 ca         1 2CS      -0.088500
     10 C13         -4.0120    -5.1910     0.9680 ca         1 2CS      -0.104500
     11 C14         -2.1820    -3.3110    -0.0380 ca         1 2CS      -0.088500
     12 C15         -2.3040    -4.5720    -0.6470 ca         1 2CS      -0.104500
     13 C16         -3.2190    -5.5100    -0.1450 ca         1 2CS       0.118000
     14 C19          0.1450    -1.2480     1.4780 ca         1 2CS      -0.085000
     15 C20          1.4950    -0.8810     1.2820 ca         1 2CS      -0.191000
     16 C21         -0.5260     0.7760     0.3540 ca         1 2CS      -0.019800
     17 C22          0.7990     1.1660     0.1270 ca         1 2CS      -0.107000
     18 C27          5.8140     1.9530     0.9050 ca         1 2CS      -0.131000
     19 C30          7.6320     0.5220    -0.6110 ca         1 2CS       0.274000
     20 C31          8.5710    -0.1890    -1.3810 ca         1 2CS      -0.081000
     21 C32          9.7970     0.3950    -1.7490 ca         1 2CS      -0.110000
     22 C33         10.0990     1.7060    -1.3460 ca         1 2CS      -0.113000
     23 C34          9.1760     2.4320    -0.5770 ca         1 2CS      -0.091000
     24 C28          7.0240     2.5720     0.5600 ca         1 2CS      -0.073000
     25 C29          7.9490     1.8460    -0.2100 ca         1 2CS      -0.082000
     26 N35          6.4590    -0.0650    -0.2710 nb         1 2CS      -0.675000
     27 C26          5.5640     0.6380     0.4700 ca         1 2CS       0.372300
     28 C25          4.2560    -0.0650     0.8380 c3         1 2CS       0.110300
     29 C23          1.8250     0.3250     0.6030 ca         1 2CS       0.100100
     30 C18         -0.8540    -0.3870     0.9920 ca         1 2CS      -0.094200
     31 C36         -1.7880     1.3780     0.0190 cd         1 2CS      -0.096600
     32 S37         -2.0280     2.9430    -0.7790 ss         1 2CS      -0.312600
     33 C38         -1.8350     4.2150     0.5670 c3         1 2CS       0.088000
     34 C41         -2.0880     5.5950    -0.0840 c3         1 2CS      -0.079433
     35 C39         -2.8830     3.9500     1.6740 c3         1 2CS      -0.079433
     36 C40         -0.4050     4.1650     1.1530 c3         1 2CS      -0.079433
     37 C6          -4.3840     0.8110    -2.3190 c3         1 2CS      -0.065600
     38 N9          -2.2460    -0.5190     1.0260 na         1 2CS      -0.090700
     39 Cl17        -3.3710    -7.0870    -0.9090 cl         1 2CS      -0.223000
     40 H11         -5.3940    -1.7190    -0.1340 hc         1 2CS       0.020700
     41 H12A        -5.5880    -1.6910    -1.8960 hc         1 2CS       0.020700
     42 H13A        -3.9670    -1.6240    -1.1950 hc         1 2CS       0.020700
     43 H71         -4.5380     1.9110     0.2660 hc         1 2CS       0.071200
     44 H72         -4.8610     0.4490     1.1400 hc         1 2CS       0.071200
     45 H101        -3.9020    -1.3000     2.0600 h1         1 2CS       0.072200
     46 H102        -2.3420    -1.7460     2.7250 h1         1 2CS       0.072200
     47 H12         -4.5120    -3.6940     2.4410 ha         1 2CS       0.128000
     48 H13         -4.7190    -5.9190     1.3570 ha         1 2CS       0.125000
     49 H14         -1.4710    -2.6010    -0.4510 ha         1 2CS       0.128000
     50 H15         -1.6910    -4.8210    -1.5090 ha         1 2CS       0.125000
     51 H19         -0.1060    -2.1770     1.9850 ha         1 2CS       0.113000
     52 H20          2.2680    -1.5450     1.6550 ha         1 2CS       0.107000
     53 H22          1.0310     2.0840    -0.4030 ha         1 2CS       0.133000
     54 H32         10.5110    -0.1700    -2.3450 ha         1 2CS       0.111000
     55 H33         11.0470     2.1580    -1.6300 ha         1 2CS       0.110000
     56 H34          9.4150     3.4470    -0.2680 ha         1 2CS       0.112000
     57 H28          7.2370     3.5890     0.8850 ha         1 2CS       0.118000
     58 H251         4.2360    -1.0640     0.3820 h1         1 2CS       0.053200
     59 H252         4.2230    -0.1880     1.9280 h1         1 2CS       0.053200
     60 H411        -3.0930     5.6410    -0.5220 hc         1 2CS       0.038144
     61 H412        -2.0030     6.3990     0.6560 hc         1 2CS       0.038144
     62 H413        -1.3620     5.7880    -0.8830 hc         1 2CS       0.038144
     63 H391        -2.7340     2.9660     2.1340 hc         1 2CS       0.038144
     64 H392        -2.8100     4.7050     2.4650 hc         1 2CS       0.038144
     65 H393        -3.9000     3.9890     1.2660 hc         1 2CS       0.038144
     66 H401         0.3460     4.2710     0.3620 hc         1 2CS       0.038144
     67 H402        -0.2540     4.9780     1.8720 hc         1 2CS       0.038144
     68 H403        -0.2270     3.2220     1.6820 hc         1 2CS       0.038144
     69 H61         -4.8470     0.4060    -3.2270 hc         1 2CS       0.020700
     70 H62         -4.4550     1.9050    -2.3610 hc         1 2CS       0.020700
     71 H63         -3.3230     0.5360    -2.3480 hc         1 2CS       0.020700
     72 C10         -2.8900    -1.6160     1.7830 c3         1 2CS       0.117900
     73 O24          3.1290     0.7170     0.3840 os         1 2CS      -0.358100
     74 H27          5.0730     2.4800     1.4990 ha         1 2CS       0.144000
     75 H31          8.3450    -1.2040    -1.6960 ha         1 2CS       0.129000
@<TRIPOS>BOND
     1     1     2 1   
     2     1    40 1   
     3     1    41 1   
     4     1    42 1   
     5     2     3 1   
     6     2     6 1   
     7     2    37 1   
     8     3     4 1   
     9     3     5 1   
    10     6     7 1   
    11     6    43 1   
    12     6    44 1   
    13     7    31 2   
    14     7    38 1   
    15     8     9 ar  
    16     8    11 ar  
    17     8    72 1   
    18     9    10 ar  
    19     9    47 1   
    20    10    13 ar  
    21    10    48 1   
    22    11    12 ar  
    23    11    49 1   
    24    12    13 ar  
    25    12    50 1   
    26    13    39 1   
    27    14    15 ar  
    28    14    30 ar  
    29    14    51 1   
    30    15    29 ar  
    31    15    52 1   
    32    16    17 ar  
    33    16    30 ar  
    34    16    31 1   
    35    17    29 ar  
    36    17    53 1   
    37    18    24 ar  
    38    18    27 ar  
    39    18    74 1   
    40    19    20 ar  
    41    19    25 ar  
    42    19    26 ar  
    43    20    21 ar  
    44    20    75 1   
    45    21    22 ar  
    46    21    54 1   
    47    22    23 ar  
    48    22    55 1   
    49    23    25 ar  
    50    23    56 1   
    51    24    25 ar  
    52    24    57 1   
    53    26    27 ar  
    54    27    28 1   
    55    28    58 1   
    56    28    59 1   
    57    28    73 1   
    58    29    73 1   
    59    30    38 1   
    60    31    32 1   
    61    32    33 1   
    62    33    34 1   
    63    33    35 1   
    64    33    36 1   
    65    34    60 1   
    66    34    61 1   
    67    34    62 1   
    68    35    63 1   
    69    35    64 1   
    70    35    65 1   
    71    36    66 1   
    72    36    67 1   
    73    36    68 1   
    74    37    69 1   
    75    37    70 1   
    76    37    71 1   
    77    38    72 1   
    78    45    72 1   
    79    46    72 1   
@<TRIPOS>SUBSTRUCTURE
     1 2CS         1 TEMP              0 ****  ****    0 ROOT
