@<TRIPOS>MOLECULE
2CS
   75    79     1     0     0
SMALL
bcc


@<TRIPOS>ATOM
      1 C1          -5.2430    -1.0850    -0.8230 c3         1 2CS      -0.065600
      2 C2          -5.1870     0.4370    -0.7000 c3         1 2CS      -0.173000
      3 C3          -6.6400     0.9560    -0.4630 c          1 2CS       0.934600
      4 O4          -6.8780     1.6000     0.5780 o          1 2CS      -0.832300
      5 O5          -7.4670     0.6760    -1.3530 o          1 2CS      -0.832300
      6 C7          -4.2850     0.8880     0.4720 c3         1 2CS      -0.027200
      7 C8          -2.8250     0.5900     0.3920 cc         1 2CS       0.080700
      8 C11         -2.8130    -2.9900     0.9020 ca         1 2CS      -0.089300
      9 C12         -3.2350    -4.1070     1.6180 ca         1 2CS      -0.106500
     10 C13         -3.2170    -5.3720     1.0540 ca         1 2CS      -0.122500
     11 C14         -2.3580    -3.1670    -0.3980 ca         1 2CS      -0.106500
     12 C15         -2.3290    -4.4280    -0.9790 ca         1 2CS      -0.122500
     13 C16         -2.7610    -5.5200    -0.2480 ca         1 2CS       0.026400
     14 C19          0.1200    -1.3830     1.0630 ca         1 2CS      -0.103000
     15 C20          1.4340    -1.0500     0.7730 ca         1 2CS      -0.209000
     16 C21         -0.5800     0.7360     0.0860 ca         1 2CS      -0.019800
     17 C22          0.7420     1.0580    -0.2110 ca         1 2CS      -0.125000
     18 C27          5.3720     1.9870     0.0170 ca         1 2CS      -0.214300
     19 C30          7.6290     0.4550    -0.2080 ca         1 2CS       0.404600
     20 C31          8.7920    -0.3410    -0.3230 ca         1 2CS      -0.164300
     21 C32         10.0120     0.2470    -0.5250 ca         1 2CS      -0.128000
     22 C33         10.1280     1.6490    -0.6230 ca         1 2CS      -0.131000
     23 C34          9.0180     2.4420    -0.5160 ca         1 2CS      -0.109000
     24 C28          6.5630     2.6210    -0.1850 ca         1 2CS      -0.091000
     25 C29          7.7470     1.8620    -0.3070 ca         1 2CS      -0.147300
     26 N35          6.4360    -0.1570    -0.0140 nb         1 2CS      -0.675000
     27 C26          5.3590     0.5730     0.0970 ca         1 2CS       0.437600
     28 C25          4.0850    -0.1750     0.3790 c3         1 2CS       0.087100
     29 C23          1.7410     0.1610     0.1320 ca         1 2CS       0.100100
     30 C18         -0.8790    -0.4890     0.7050 ca         1 2CS      -0.094200
     31 C36         -1.8260     1.4200    -0.0820 cd         1 2CS      -0.096600
     32 S37         -2.0250     3.0000    -0.7950 ss         1 2CS      -0.264700
     33 C38         -1.7580     4.2020     0.5910 c3         1 2CS       0.040100
     34 C41         -1.9170     5.5670    -0.0740 c3         1 2CS      -0.079433
     35 C39         -2.8160     4.0140     1.6680 c3         1 2CS      -0.079433
     36 C40         -0.3630     4.0570     1.1810 c3         1 2CS      -0.079433
     37 C6          -4.6780     1.0060    -2.0250 c3         1 2CS      -0.065600
     38 N9          -2.2460    -0.5660     0.8640 na         1 2CS      -0.061400
     39 CL17        -2.7280    -7.0990    -0.9650 cl         1 2CS      -0.131400
     40 H11         -5.5790    -1.5650     0.1000 hc         1 2CS       0.020700
     41 H12A        -5.9330    -1.3720    -1.6160 hc         1 2CS       0.020700
     42 H13A        -4.2680    -1.5030    -1.0760 hc         1 2CS       0.020700
     43 H71         -4.3690     1.9700     0.5530 hc         1 2CS       0.071200
     44 H72         -4.6920     0.4950     1.4070 hc         1 2CS       0.071200
     45 H101        -3.9220    -1.3760     1.7550 h1         1 2CS       0.072200
     46 H102        -2.4250    -1.7230     2.5740 h1         1 2CS       0.072200
     47 H12         -3.5850    -3.9930     2.6370 ha         1 2CS       0.146000
     48 H13         -3.5500    -6.2290     1.6230 ha         1 2CS       0.143000
     49 H14         -2.0140    -2.3210    -0.9800 ha         1 2CS       0.146000
     50 H15         -1.9700    -4.5500    -1.9920 ha         1 2CS       0.143000
     51 H19         -0.1010    -2.3220     1.5540 ha         1 2CS       0.131000
     52 H20          2.2150    -1.7490     1.0430 ha         1 2CS       0.125000
     53 H22          0.9920     1.9970    -0.6900 ha         1 2CS       0.151000
     54 H32         10.8980    -0.3690    -0.6110 ha         1 2CS       0.129000
     55 H33         11.1010     2.0950    -0.7830 ha         1 2CS       0.128000
     56 H34          9.1000     3.5200    -0.5880 ha         1 2CS       0.130000
     57 H28          6.6100     3.7010    -0.2490 ha         1 2CS       0.136000
     58 H251         4.1730    -1.1910    -0.0200 h1         1 2CS       0.053200
     59 H252         3.9570    -0.2600     1.4660 h1         1 2CS       0.053200
     60 H411        -2.9080     5.6860    -0.5160 hc         1 2CS       0.038144
     61 H412        -1.7890     6.3550     0.6710 hc         1 2CS       0.038144
     62 H413        -1.1720     5.7240    -0.8560 hc         1 2CS       0.038144
     63 H391        -2.7690     3.0160     2.1060 hc         1 2CS       0.038144
     64 H392        -2.6600     4.7390     2.4710 hc         1 2CS       0.038144
     65 H393        -3.8200     4.1660     1.2680 hc         1 2CS       0.038144
     66 H401         0.4070     4.1850     0.4200 hc         1 2CS       0.038144
     67 H402        -0.2070     4.8160     1.9530 hc         1 2CS       0.038144
     68 H403        -0.2230     3.0800     1.6450 hc         1 2CS       0.038144
     69 H61         -5.3330     0.7030    -2.8410 hc         1 2CS       0.020700
     70 H62         -4.6320     2.0960    -2.0090 hc         1 2CS       0.020700
     71 H63         -3.6730     0.6420    -2.2500 hc         1 2CS       0.020700
     72 C10         -2.8800    -1.6420     1.5820 c3         1 2CS       0.088600
     73 O24          3.0090     0.5260    -0.1960 os         1 2CS      -0.334900
     74 H27          4.4560     2.5520     0.1190 ha         1 2CS       0.162000
     75 H31          8.6930    -1.4160    -0.2500 ha         1 2CS       0.147000
@<TRIPOS>BOND
     1     1     2 1   
     2     1    40 1   
     3     1    41 1   
     4     1    42 1   
     5     2     3 1   
     6     2     6 1   
     7     2    37 1   
     8     3     4 1   
     9     3     5 1   
    10     6     7 1   
    11     6    43 1   
    12     6    44 1   
    13     7    31 2   
    14     7    38 1   
    15     8     9 ar  
    16     8    11 ar  
    17     8    72 1   
    18     9    10 ar  
    19     9    47 1   
    20    10    13 ar  
    21    10    48 1   
    22    11    12 ar  
    23    11    49 1   
    24    12    13 ar  
    25    12    50 1   
    26    13    39 1   
    27    14    15 ar  
    28    14    30 ar  
    29    14    51 1   
    30    15    29 ar  
    31    15    52 1   
    32    16    17 ar  
    33    16    30 ar  
    34    16    31 1   
    35    17    29 ar  
    36    17    53 1   
    37    18    24 ar  
    38    18    27 ar  
    39    18    74 1   
    40    19    20 ar  
    41    19    25 ar  
    42    19    26 ar  
    43    20    21 ar  
    44    20    75 1   
    45    21    22 ar  
    46    21    54 1   
    47    22    23 ar  
    48    22    55 1   
    49    23    25 ar  
    50    23    56 1   
    51    24    25 ar  
    52    24    57 1   
    53    26    27 ar  
    54    27    28 1   
    55    28    58 1   
    56    28    59 1   
    57    28    73 1   
    58    29    73 1   
    59    30    38 1   
    60    31    32 1   
    61    32    33 1   
    62    33    34 1   
    63    33    35 1   
    64    33    36 1   
    65    34    60 1   
    66    34    61 1   
    67    34    62 1   
    68    35    63 1   
    69    35    64 1   
    70    35    65 1   
    71    36    66 1   
    72    36    67 1   
    73    36    68 1   
    74    37    69 1   
    75    37    70 1   
    76    37    71 1   
    77    38    72 1   
    78    45    72 1   
    79    46    72 1   
@<TRIPOS>SUBSTRUCTURE
     1 2CS         1 TEMP              0 ****  ****    0 ROOT
