@<TRIPOS>MOLECULE
2CT
   41    42     1     0     0
SMALL
No Charge or Current Charge


@<TRIPOS>ATOM
      1 CAA         21.1140     5.8200    -5.0950 c3         1 2CT       0.158900
      2 CAB         21.3570     8.2860   -11.8650 c3         1 2CT       0.154900
      3 OAC         25.2900    10.1570    -7.2220 o          1 2CT      -0.708100
      4 OAD         21.5060    14.1500    -8.9340 o          1 2CT      -0.902167
      5 OAE         20.8170    15.0540   -11.0930 o          1 2CT      -0.902167
      6 OAF         21.5010    12.7150   -10.9020 o          1 2CT      -0.902167
      7 CAG         26.1440    15.3680   -11.2910 ca         1 2CT      -0.136000
      8 CAH         25.0730    16.1420   -11.7560 ca         1 2CT      -0.182000
      9 CAI         25.8950    14.2000   -10.5540 ca         1 2CT      -0.223000
     10 CAJ         21.1630     6.7480    -7.8470 ca         1 2CT      -0.194000
     11 CAK         23.7520    15.7500   -11.4850 ca         1 2CT      -0.058000
     12 CAL         21.2110     7.2340    -9.1640 ca         1 2CT      -0.183000
     13 CAM         22.7740     8.4390    -7.1660 ca         1 2CT      -0.129000
     14 CAN         25.3510    11.8220    -8.9940 c3         1 2CT       0.098600
     15 NAO         23.6580    10.0380    -8.8510 ns         1 2CT      -0.125000
     16 OAP         21.9290     6.9220    -5.5310 os         1 2CT      -0.358100
     17 OAQ         22.1250     8.8280   -10.7780 os         1 2CT      -0.273100
     18 OAR         24.3050    12.6480    -9.5520 os         1 2CT      -0.323100
     19 CAS         24.7700    10.6010    -8.2460 c          1 2CT       0.587100
     20 CAT         21.9450     7.3530    -6.8420 ca         1 2CT       0.079100
     21 CAU         22.8370     8.9320    -8.4880 ca         1 2CT       0.026000
     22 CAV         22.0450     8.3280    -9.4900 ca         1 2CT       0.125100
     23 CAW         24.5660    13.7950   -10.2760 ca         1 2CT       0.156100
     24 CAX         23.4870    14.5760   -10.7460 ca         1 2CT      -0.136500
     25 PAY         21.7420    14.1020   -10.4070 p5         1 2CT       1.189000
     26 HAA         21.2530     5.6460    -4.0210 h1         1 2CT       0.021700
     27 HAAA        20.0510     6.0280    -5.2720 h1         1 2CT       0.021700
     28 HAAB        21.3870     4.8990    -5.6270 h1         1 2CT       0.021700
     29 HAB         21.5720     8.8330   -12.7910 h1         1 2CT       0.031367
     30 HABA        21.6050     7.2300   -12.0280 h1         1 2CT       0.031367
     31 HABB        20.2820     8.3700   -11.6610 h1         1 2CT       0.031367
     32 HAG         27.1660    15.6720   -11.5010 ha         1 2CT       0.060000
     33 HAH         25.2640    17.0480   -12.3260 ha         1 2CT       0.067000
     34 HAI         26.7460    13.6220   -10.2080 ha         1 2CT       0.075000
     35 HAJ         20.5120     5.9060    -7.6280 ha         1 2CT       0.084000
     36 HAK         22.9310    16.3630   -11.8510 ha         1 2CT       0.132000
     37 HAL         20.5970     6.7490    -9.9170 ha         1 2CT       0.096000
     38 HAM         23.3520     8.8980    -6.3710 ha         1 2CT       0.132000
     39 HAN         25.9980    11.4380    -9.7940 h1         1 2CT       0.034700
     40 HANA        25.9640    12.3980    -8.2890 h1         1 2CT       0.034700
     41 HNAO        23.3700    10.5070    -9.7010 hn         1 2CT       0.286000
@<TRIPOS>BOND
     1     1    16 1   
     2     1    26 1   
     3     1    27 1   
     4     1    28 1   
     5     2    17 1   
     6     2    29 1   
     7     2    30 1   
     8     2    31 1   
     9     3    19 2   
    10     4    25 1   
    11     5    25 1   
    12     6    25 1   
    13     7     8 ar  
    14     7     9 ar  
    15     7    32 1   
    16     8    11 ar  
    17     8    33 1   
    18     9    23 ar  
    19     9    34 1   
    20    10    12 ar  
    21    10    20 ar  
    22    10    35 1   
    23    11    24 ar  
    24    11    36 1   
    25    12    22 ar  
    26    12    37 1   
    27    13    20 ar  
    28    13    21 ar  
    29    13    38 1   
    30    14    18 1   
    31    14    19 1   
    32    14    39 1   
    33    14    40 1   
    34    15    19 1   
    35    15    21 1   
    36    15    41 1   
    37    16    20 1   
    38    17    22 1   
    39    18    23 1   
    40    21    22 ar  
    41    23    24 ar  
    42    24    25 1   
@<TRIPOS>SUBSTRUCTURE
     1 2CT         1 TEMP              0 ****  ****    0 ROOT
