@<TRIPOS>MOLECULE
2CT
   41    42     1     0     0
SMALL
abcg2


@<TRIPOS>ATOM
      1 CAA         21.2800     6.4150    -4.9760 c3         1 2CT       0.158900
      2 CAB         20.8960     8.4890   -11.6990 c3         1 2CT       0.154900
      3 OAC         25.6080     9.3720    -8.3530 o          1 2CT      -0.708100
      4 OAD         21.9440    12.1660    -9.9980 o          1 2CT      -0.902167
      5 OAE         20.9780    14.0050   -11.4800 o          1 2CT      -0.902167
      6 OAF         22.4460    12.1850   -12.5170 o          1 2CT      -0.902167
      7 CAG         25.8780    15.6300   -10.3110 ca         1 2CT      -0.136000
      8 CAH         24.6930    16.2320   -10.7160 ca         1 2CT      -0.182000
      9 CAI         25.9530    14.2420   -10.2150 ca         1 2CT      -0.223000
     10 CAJ         21.0710     7.1500    -7.6950 ca         1 2CT      -0.194000
     11 CAK         23.5880    15.4380   -11.0190 ca         1 2CT      -0.058000
     12 CAL         21.0240     7.5430    -9.0340 ca         1 2CT      -0.183000
     13 CAM         22.8330     8.7440    -7.3140 ca         1 2CT      -0.129000
     14 CAN         25.6530    11.4590    -9.4780 c3         1 2CT       0.098600
     15 NAO         23.6100    10.1820    -9.1280 ns         1 2CT      -0.125000
     16 OAP         22.1220     7.4330    -5.5080 os         1 2CT      -0.358100
     17 OAQ         21.9330     8.9190   -10.8230 os         1 2CT      -0.273100
     18 OAR         24.8780    12.0990   -10.4710 os         1 2CT      -0.323100
     19 CAS         24.9390    10.2260    -8.9400 c          1 2CT       0.587100
     20 CAT         21.9850     7.7440    -6.8340 ca         1 2CT       0.079100
     21 CAU         22.7900     9.1380    -8.6410 ca         1 2CT       0.026000
     22 CAV         21.8830     8.5190    -9.5230 ca         1 2CT       0.125100
     23 CAW         24.8360    13.4690   -10.5220 ca         1 2CT       0.156100
     24 CAX         23.6220    14.0460   -10.9280 ca         1 2CT      -0.136500
     25 PAY         22.1170    13.0100   -11.2740 p5         1 2CT       1.189000
     26 HAA         21.5540     6.3170    -3.9280 h1         1 2CT       0.021700
     27 HAAA        20.2260     6.6930    -5.0540 h1         1 2CT       0.021700
     28 HAAB        21.4420     5.4620    -5.4870 h1         1 2CT       0.021700
     29 HAB         21.0740     8.9980   -12.6430 h1         1 2CT       0.031367
     30 HABA        20.9280     7.4070   -11.8530 h1         1 2CT       0.031367
     31 HABB        19.9150     8.7700   -11.3090 h1         1 2CT       0.031367
     32 HAG         26.7480    16.2300   -10.0740 ha         1 2CT       0.060000
     33 HAH         24.6270    17.3100   -10.7930 ha         1 2CT       0.067000
     34 HAI         26.8790    13.7690    -9.9150 ha         1 2CT       0.075000
     35 HAJ         20.3920     6.3840    -7.3520 ha         1 2CT       0.084000
     36 HAK         22.6570    15.9020   -11.3160 ha         1 2CT       0.132000
     37 HAL         20.3130     7.0640    -9.6910 ha         1 2CT       0.096000
     38 HAM         23.5260     9.2210    -6.6350 ha         1 2CT       0.132000
     39 HAN         26.6190    11.1370    -9.8760 h1         1 2CT       0.034700
     40 HANA        25.8390    12.1270    -8.6320 h1         1 2CT       0.034700
     41 HNAO        23.1070    10.9710    -9.6070 hn         1 2CT       0.286000
@<TRIPOS>BOND
     1     1    16 1   
     2     1    26 1   
     3     1    27 1   
     4     1    28 1   
     5     2    17 1   
     6     2    29 1   
     7     2    30 1   
     8     2    31 1   
     9     3    19 2   
    10     4    25 1   
    11     5    25 1   
    12     6    25 1   
    13     7     8 ar  
    14     7     9 ar  
    15     7    32 1   
    16     8    11 ar  
    17     8    33 1   
    18     9    23 ar  
    19     9    34 1   
    20    10    12 ar  
    21    10    20 ar  
    22    10    35 1   
    23    11    24 ar  
    24    11    36 1   
    25    12    22 ar  
    26    12    37 1   
    27    13    20 ar  
    28    13    21 ar  
    29    13    38 1   
    30    14    18 1   
    31    14    19 1   
    32    14    39 1   
    33    14    40 1   
    34    15    19 1   
    35    15    21 1   
    36    15    41 1   
    37    16    20 1   
    38    17    22 1   
    39    18    23 1   
    40    21    22 ar  
    41    23    24 ar  
    42    24    25 1   
@<TRIPOS>SUBSTRUCTURE
     1 2CT         1 TEMP              0 ****  ****    0 ROOT
