@<TRIPOS>MOLECULE
2CU
   53    56     1     0     0
SMALL
bcc


@<TRIPOS>ATOM
      1 C15         -1.3720    -2.6400    -0.3220 ca         1 2CU       0.055700
      2 C16         -2.0760    -3.9260    -0.6170 c3         1 2CU      -0.068800
      3 C18         -3.4950    -1.1330    -0.1800 cc         1 2CU       0.278800
      4 C20         -3.7460     0.2150     0.0020 cd         1 2CU      -0.285600
      5 C24         -5.0730     0.8140     0.0950 c          1 2CU       0.725300
      6 C22         -1.3200    -0.2680     0.0640 ca         1 2CU       0.525600
      7 C10          2.6480    -0.1450     0.3220 c3         1 2CU       0.059400
      8 N02          6.7020     2.6760    -0.1350 n3         1 2CU      -0.714600
      9 C03          7.0770     1.2960    -0.3700 c6         1 2CU       0.143300
     10 C04          6.4020     0.3760     0.6330 c6         1 2CU       0.097500
     11 N05          4.9620     0.5590     0.5910 n          1 2CU      -0.484800
     12 C06          4.5620     1.9410     0.7830 c6         1 2CU       0.097500
     13 C07          5.2650     2.8350    -0.2240 c6         1 2CU       0.143300
     14 C08          4.1350    -0.4780     0.3650 c          1 2CU       0.673100
     15 O09          4.5200    -1.6230     0.2040 o          1 2CU      -0.568100
     16 O11          1.9710    -1.3650     0.1060 os         1 2CU      -0.383100
     17 C12          0.6510    -1.3370     0.0220 ca         1 2CU       0.692600
     18 C13          0.0030    -2.5720    -0.2150 ca         1 2CU      -0.140900
     19 CL1          1.0030    -3.9700    -0.3710 cl         1 2CU      -0.060400
     20 C17         -2.0760    -1.4220    -0.1510 ca         1 2CU      -0.267100
     21 N19         -4.4560    -2.0650    -0.4000 nv         1 2CU      -0.814600
     22 S21         -2.2800     1.1550     0.1860 ss         1 2CU      -0.119900
     23 N23          0.0020    -0.2100     0.1470 nb         1 2CU      -0.753000
     24 O25         -6.0920     0.1560    -0.1230 o          1 2CU      -0.635100
     25 N26         -5.1390     2.1230     0.4270 ns         1 2CU      -0.543900
     26 C27         -6.3880     2.7920     0.5870 cx         1 2CU       0.044700
     27 C28         -6.4710     4.2130     0.1330 cx         1 2CU      -0.130400
     28 C29         -7.1820     3.1400    -0.6310 cx         1 2CU      -0.130400
     29 H1          -2.6140    -4.2830     0.2630 hc         1 2CU       0.061700
     30 H2          -2.7950    -3.7930    -1.4240 hc         1 2CU       0.061700
     31 H3          -1.3900    -4.7120    -0.9130 hc         1 2CU       0.061700
     32 H4           2.3250     0.3180     1.2590 h1         1 2CU       0.067700
     33 H5           2.4350     0.5630    -0.4840 h1         1 2CU       0.067700
     34 H6           7.1650     3.4030    -2.0880 h1         1 2CU       0.033367
     35 H7           7.1290     4.6100    -0.7920 h1         1 2CU       0.033367
     36 H8           8.4730     3.4740    -0.8960 h1         1 2CU       0.033367
     37 H10          6.8200     0.9680    -1.3920 h1         1 2CU       0.041700
     38 H11          8.1600     1.1960    -0.2630 h1         1 2CU       0.041700
     39 H12          6.6470    -0.6590     0.4140 h1         1 2CU       0.061700
     40 H13          6.7610     0.6050     1.6420 h1         1 2CU       0.061700
     41 H14          3.4870     2.0640     0.6830 h1         1 2CU       0.061700
     42 H15          4.8290     2.2510     1.7990 h1         1 2CU       0.061700
     43 H16          5.0040     3.8740    -0.0110 h1         1 2CU       0.041700
     44 H17          4.8850     2.6040    -1.2350 h1         1 2CU       0.041700
     45 H18         -5.4020    -1.7380    -0.2750 hn         1 2CU       0.433800
     46 H19         -4.2910    -3.0060    -0.0930 hn         1 2CU       0.433800
     47 H20         -4.3240     2.5940     0.7870 hn         1 2CU       0.316500
     48 H21         -6.9470     2.5270     1.4800 h1         1 2CU       0.082700
     49 H22         -7.0520     4.8980     0.7360 hc         1 2CU       0.077700
     50 H23         -5.5870     4.6500    -0.3160 hc         1 2CU       0.077700
     51 H24         -6.7760     2.8520    -1.5910 hc         1 2CU       0.077700
     52 H25         -8.2600     3.0790    -0.5600 hc         1 2CU       0.077700
     53 C01          7.3950     3.5780    -1.0250 c3         1 2CU       0.152100
@<TRIPOS>BOND
     1     1     2 1   
     2     1    18 ar  
     3     1    20 ar  
     4     2    29 1   
     5     2    30 1   
     6     2    31 1   
     7     3     4 2   
     8     3    20 1   
     9     3    21 1   
    10     4     5 1   
    11     4    22 1   
    12     5    24 2   
    13     5    25 1   
    14     6    20 ar  
    15     6    22 1   
    16     6    23 ar  
    17     7    14 1   
    18     7    16 1   
    19     7    32 1   
    20     7    33 1   
    21     8     9 1   
    22     8    13 1   
    23     8    53 1   
    24     9    10 1   
    25     9    37 1   
    26     9    38 1   
    27    10    11 1   
    28    10    39 1   
    29    10    40 1   
    30    11    12 1   
    31    11    14 1   
    32    12    13 1   
    33    12    41 1   
    34    12    42 1   
    35    13    43 1   
    36    13    44 1   
    37    14    15 2   
    38    16    17 1   
    39    17    18 ar  
    40    17    23 ar  
    41    18    19 1   
    42    21    45 1   
    43    21    46 1   
    44    25    26 1   
    45    25    47 1   
    46    26    27 1   
    47    26    28 1   
    48    26    48 1   
    49    27    28 1   
    50    27    49 1   
    51    27    50 1   
    52    28    51 1   
    53    28    52 1   
    54    34    53 1   
    55    35    53 1   
    56    36    53 1   
@<TRIPOS>SUBSTRUCTURE
     1 2CU         1 TEMP              0 ****  ****    0 ROOT
