@<TRIPOS>MOLECULE
2CU
   53    56     1     0     0
SMALL
No Charge or Current Charge


@<TRIPOS>ATOM
      1 C15         -1.4940    -2.7860    -0.3430 ca         1 2CU       0.055700
      2 C16         -2.2280    -4.0980    -0.6440 c3         1 2CU      -0.068800
      3 C18         -3.6140    -1.2740    -0.1530 cc         1 2CU       0.278800
      4 C20         -3.8870     0.0690     0.0430 cd         1 2CU      -0.285600
      5 C24         -5.2610     0.6290     0.1270 c          1 2CU       0.658300
      6 C22         -1.4400    -0.4040     0.0760 ca         1 2CU       0.460300
      7 C10          2.6730    -0.2600     0.3320 c3         1 2CU       0.082600
      8 N02          6.7350     2.8360    -0.2110 n3         1 2CU      -0.714600
      9 C03          7.1930     1.4160    -0.2850 c6         1 2CU       0.143300
     10 C04          6.5160     0.5330     0.8000 c6         1 2CU       0.097500
     11 N05          5.0300     0.6330     0.7330 n          1 2CU      -0.417800
     12 C06          4.5570     2.0480     0.7940 c6         1 2CU       0.097500
     13 C07          5.2470     2.9230    -0.2900 c6         1 2CU       0.143300
     14 C08          4.2110    -0.4690     0.3810 c          1 2CU       0.606100
     15 O09          4.7140    -1.5660     0.1580 o          1 2CU      -0.568100
     16 O11          1.9450    -1.4900     0.0780 os         1 2CU      -0.406300
     17 C12          0.5680    -1.5080    -0.0030 ca         1 2CU       0.627300
     18 C13         -0.0770    -2.7450    -0.2520 ca         1 2CU       0.016000
     19 Cl1          0.9140    -4.2080    -0.4370 cl         1 2CU      -0.152000
     20 C17         -2.1800    -1.5550    -0.1480 ca         1 2CU      -0.201800
     21 N19         -4.5680    -2.2280    -0.2940 nv         1 2CU      -0.925000
     22 S21         -2.4130     1.0640     0.2400 ss         1 2CU      -0.119900
     23 N23         -0.1030    -0.3470     0.1510 nb         1 2CU      -0.753000
     24 O25         -6.2940    -0.0240     0.0300 o          1 2CU      -0.635100
     25 N26         -5.2640     1.9870     0.3340 ns         1 2CU      -0.476900
     26 C27         -6.4460     2.7950     0.4520 cx         1 2CU       0.044700
     27 C28         -6.2710     4.2930     0.4560 cx         1 2CU      -0.130400
     28 C29         -6.8630     3.6060    -0.7510 cx         1 2CU      -0.130400
     29 H1          -2.7800    -4.4500     0.2350 hc         1 2CU       0.061700
     30 H2          -2.9310    -3.9730    -1.4760 hc         1 2CU       0.061700
     31 H3          -1.5640    -4.9130    -0.9460 hc         1 2CU       0.061700
     32 H4           2.3710     0.1750     1.2930 h1         1 2CU       0.067700
     33 H5           2.4680     0.4750    -0.4560 h1         1 2CU       0.067700
     34 H6           7.1710     3.3910    -2.2250 h1         1 2CU       0.033367
     35 H7           7.0960     4.7490    -1.0770 h1         1 2CU       0.033367
     36 H8           8.5000     3.6620    -1.0730 h1         1 2CU       0.033367
     37 H10          6.9620     0.9950    -1.2750 h1         1 2CU       0.041700
     38 H11          8.2840     1.3590    -0.1560 h1         1 2CU       0.041700
     39 H12          6.8530    -0.5050     0.6810 h1         1 2CU       0.061700
     40 H13          6.8490     0.8680     1.7920 h1         1 2CU       0.061700
     41 H14          3.4690     2.1270     0.6760 h1         1 2CU       0.061700
     42 H15          4.8000     2.4570     1.7850 h1         1 2CU       0.061700
     43 H16          4.9180     3.9650    -0.1640 h1         1 2CU       0.041700
     44 H17          4.9000     2.5920    -1.2810 h1         1 2CU       0.041700
     45 H18         -5.5360    -1.9260    -0.1710 hn         1 2CU       0.489000
     46 H19         -4.3600    -3.1920    -0.0620 hn         1 2CU       0.489000
     47 H20         -4.3530     2.4200     0.4030 hn         1 2CU       0.316500
     48 H21         -7.2280     2.3670     1.0830 h1         1 2CU       0.082700
     49 H22         -6.9390     4.8760     1.0860 hc         1 2CU       0.077700
     50 H23         -5.2640     4.6940     0.3680 hc         1 2CU       0.077700
     51 H24         -6.2520     3.5390    -1.6480 hc         1 2CU       0.077700
     52 H25         -7.9280     3.7260    -0.9320 hc         1 2CU       0.077700
     53 C01          7.4100     3.7040    -1.2000 c3         1 2CU       0.152100
@<TRIPOS>BOND
     1     1     2 1   
     2     1    18 ar  
     3     1    20 ar  
     4     2    29 1   
     5     2    30 1   
     6     2    31 1   
     7     3     4 2   
     8     3    20 1   
     9     3    21 1   
    10     4     5 1   
    11     4    22 1   
    12     5    24 2   
    13     5    25 1   
    14     6    20 ar  
    15     6    22 1   
    16     6    23 ar  
    17     7    14 1   
    18     7    16 1   
    19     7    32 1   
    20     7    33 1   
    21     8     9 1   
    22     8    13 1   
    23     8    53 1   
    24     9    10 1   
    25     9    37 1   
    26     9    38 1   
    27    10    11 1   
    28    10    39 1   
    29    10    40 1   
    30    11    12 1   
    31    11    14 1   
    32    12    13 1   
    33    12    41 1   
    34    12    42 1   
    35    13    43 1   
    36    13    44 1   
    37    14    15 2   
    38    16    17 1   
    39    17    18 ar  
    40    17    23 ar  
    41    18    19 1   
    42    21    45 1   
    43    21    46 1   
    44    25    26 1   
    45    25    47 1   
    46    26    27 1   
    47    26    28 1   
    48    26    48 1   
    49    27    28 1   
    50    27    49 1   
    51    27    50 1   
    52    28    51 1   
    53    28    52 1   
    54    34    53 1   
    55    35    53 1   
    56    36    53 1   
@<TRIPOS>SUBSTRUCTURE
     1 2CU         1 TEMP              0 ****  ****    0 ROOT
