@<TRIPOS>MOLECULE
2CV
   63    62     1     0     0
SMALL
No Charge or Current Charge


@<TRIPOS>ATOM
      1 C9           9.3180     0.7910    -0.4690 c3         1 2CV      -0.075400
      2 C12          7.9450     1.1600     0.1340 c3         1 2CV      -0.075400
      3 C15          6.8030     0.2430    -0.3550 c3         1 2CV      -0.073400
      4 C18          5.4300     0.6120     0.2480 c3         1 2CV      -0.075400
      5 C21          4.2890    -0.3060    -0.2410 c3         1 2CV      -0.076400
      6 C24          2.9160     0.0620     0.3620 c3         1 2CV      -0.066400
      7 C27          1.7750    -0.8610    -0.1320 c3         1 2CV      -0.151400
      8 C30          0.3690    -0.5570     0.4330 c          1 2CV       0.602100
      9 N33         -0.7190    -1.3970     0.0790 n          1 2CV      -0.399800
     10 O34          0.1850     0.4170     1.1530 o          1 2CV      -0.614100
     11 C35         -0.5380    -2.6590    -0.6970 c3         1 2CV       0.109000
     12 C36         -2.0790    -1.1210     0.6230 c3         1 2CV       0.081000
     13 C37         -2.8870    -0.0650    -0.1820 c3         1 2CV       0.114300
     14 C40         -4.3690     0.0550     0.3100 c3         1 2CV       0.118300
     15 C41         -5.2150     1.1190    -0.4730 c3         1 2CV       0.104300
     16 C42         -6.6930     1.2370     0.0280 c3         1 2CV       0.138300
     17 C43         -7.5140     2.3110    -0.7340 c3         1 2CV       0.131600
     18 O44         -8.7710     2.5230    -0.0610 oh         1 2CV      -0.709000
     19 O47         -2.8450    -0.3940    -1.5890 oh         1 2CV      -0.708000
     20 O49         -4.3920     0.3870     1.7070 oh         1 2CV      -0.699000
     21 O51         -5.2000     0.7820    -1.8700 oh         1 2CV      -0.699000
     22 O53         -6.7390     1.5900     1.4230 oh         1 2CV      -0.693000
     23 C60         -0.2170    -3.9100     0.1640 c3         1 2CV       0.137600
     24 O63         -1.3240    -4.2740     1.0040 oh         1 2CV      -0.657000
     25 C1          10.4600     1.7090     0.0200 c3         1 2CV      -0.075400
     26 C0          11.8300     1.3410    -0.5820 c3         1 2CV      -0.088100
     27 H91C         9.5570    -0.2480    -0.2120 hc         1 2CV       0.036700
     28 H92C         9.2570     0.8450    -1.5640 hc         1 2CV       0.036700
     29 H121         8.0060     1.1070     1.2280 hc         1 2CV       0.037700
     30 H122         7.7060     2.2000    -0.1230 hc         1 2CV       0.037700
     31 H11C        10.2260     2.7500    -0.2370 hc         1 2CV       0.036700
     32 H12C        10.5250     1.6570     1.1140 hc         1 2CV       0.036700
     33 H151         6.7420     0.2960    -1.4490 hc         1 2CV       0.036200
     34 H152         7.0420    -0.7970    -0.0980 hc         1 2CV       0.036200
     35 H181         5.4920     0.5580     1.3430 hc         1 2CV       0.040200
     36 H182         5.1920     1.6510    -0.0090 hc         1 2CV       0.040200
     37 H211         4.2280    -0.2530    -1.3350 hc         1 2CV       0.033700
     38 H212         4.5280    -1.3460     0.0160 hc         1 2CV       0.033700
     39 H241         2.9760     0.0070     1.4560 hc         1 2CV       0.055700
     40 H242         2.6770     1.1020     0.1050 hc         1 2CV       0.055700
     41 H271         1.7030    -0.8470    -1.2260 hc         1 2CV       0.053700
     42 H272         2.0070    -1.9150     0.0580 hc         1 2CV       0.053700
     43 H351        -1.4590    -2.8620    -1.2590 h1         1 2CV       0.056700
     44 H352         0.2510    -2.5310    -1.4470 h1         1 2CV       0.056700
     45 H361        -2.6570    -2.0540     0.6390 h1         1 2CV       0.072700
     46 H362        -1.9920    -0.7920     1.6670 h1         1 2CV       0.072700
     47 H601         0.0260    -4.7420    -0.5100 h1         1 2CV       0.023700
     48 H602         0.6730    -3.7110     0.7750 h1         1 2CV       0.023700
     49 H37         -2.4030     0.9090    -0.0160 h1         1 2CV       0.099700
     50 H40         -4.8510    -0.9230     0.1660 h1         1 2CV       0.058700
     51 H47         -1.9060    -0.6110    -1.7970 ho         1 2CV       0.490000
     52 H41         -4.7320     2.0970    -0.3310 h1         1 2CV       0.071700
     53 H49         -5.2680     0.8540     1.8350 ho         1 2CV       0.517000
     54 H42         -7.1860     0.2670    -0.1300 h1         1 2CV       0.089700
     55 H51         -4.3260     0.3110    -1.9970 ho         1 2CV       0.507000
     56 H431        -6.9410     3.2480    -0.7760 h1         1 2CV       0.028200
     57 H432        -7.6830     1.9740    -1.7660 h1         1 2CV       0.028200
     58 H53         -7.6130     2.0530     1.5010 ho         1 2CV       0.497000
     59 H44         -9.3040     3.1320    -0.6260 ho         1 2CV       0.502000
     60 H63         -1.0480    -5.0650     1.5190 ho         1 2CV       0.447000
     61 H01C        12.1090     0.3150    -0.3130 hc         1 2CV       0.031367
     62 H02C        11.8060     1.4180    -1.6760 hc         1 2CV       0.031367
     63 H03C        12.6060     2.0180    -0.2070 hc         1 2CV       0.031367
@<TRIPOS>BOND
     1     1     2 1   
     2     1    25 1   
     3     1    27 1   
     4     1    28 1   
     5     2     3 1   
     6     2    29 1   
     7     2    30 1   
     8     3     4 1   
     9     3    33 1   
    10     3    34 1   
    11     4     5 1   
    12     4    35 1   
    13     4    36 1   
    14     5     6 1   
    15     5    37 1   
    16     5    38 1   
    17     6     7 1   
    18     6    39 1   
    19     6    40 1   
    20     7     8 1   
    21     7    41 1   
    22     7    42 1   
    23     8     9 1   
    24     8    10 2   
    25     9    11 1   
    26     9    12 1   
    27    11    23 1   
    28    11    43 1   
    29    11    44 1   
    30    12    13 1   
    31    12    45 1   
    32    12    46 1   
    33    13    14 1   
    34    13    19 1   
    35    13    49 1   
    36    14    15 1   
    37    14    20 1   
    38    14    50 1   
    39    15    16 1   
    40    15    21 1   
    41    15    52 1   
    42    16    17 1   
    43    16    22 1   
    44    16    54 1   
    45    17    18 1   
    46    17    56 1   
    47    17    57 1   
    48    18    59 1   
    49    19    51 1   
    50    20    53 1   
    51    21    55 1   
    52    22    58 1   
    53    23    24 1   
    54    23    47 1   
    55    23    48 1   
    56    24    60 1   
    57    25    26 1   
    58    25    31 1   
    59    25    32 1   
    60    26    61 1   
    61    26    62 1   
    62    26    63 1   
@<TRIPOS>SUBSTRUCTURE
     1 2CV         1 TEMP              0 ****  ****    0 ROOT
