@<TRIPOS>MOLECULE
2CV
   63    62     1     0     0
SMALL
abcg2


@<TRIPOS>ATOM
      1 C9           8.9650     1.0090    -0.3200 c3         1 2CV      -0.075400
      2 C12          7.5350     1.3490     0.0790 c3         1 2CV      -0.075400
      3 C15          6.5200     0.2880    -0.3290 c3         1 2CV      -0.073400
      4 C18          5.0990     0.6310     0.1000 c3         1 2CV      -0.075400
      5 C21          4.0670    -0.4120    -0.3110 c3         1 2CV      -0.076400
      6 C24          2.6650    -0.0660     0.1760 c3         1 2CV      -0.066400
      7 C27          1.6330    -1.0970    -0.2540 c3         1 2CV      -0.151400
      8 C30          0.2440    -0.8130     0.2890 c          1 2CV       0.602100
      9 N33         -0.7310    -1.7150     0.0360 n          1 2CV      -0.399800
     10 O34          0.0160     0.2080     0.9300 o          1 2CV      -0.614100
     11 C35         -0.5010    -2.9570    -0.6830 c3         1 2CV       0.109000
     12 C36         -2.0730    -1.4410     0.5270 c3         1 2CV       0.081000
     13 C37         -2.8180    -0.4520    -0.3750 c3         1 2CV       0.114300
     14 C40         -4.2500    -0.1560     0.1320 c3         1 2CV       0.118300
     15 C41         -4.7350     1.2340    -0.3180 c3         1 2CV       0.104300
     16 C42         -6.1510     1.5640     0.2120 c3         1 2CV       0.138300
     17 C43         -6.8540     2.5940    -0.6630 c3         1 2CV       0.131600
     18 O44         -8.1070     2.8800    -0.0840 oh         1 2CV      -0.709000
     19 O47         -2.8410    -0.9090    -1.7120 oh         1 2CV      -0.708000
     20 O49         -4.3890    -0.3260     1.5220 oh         1 2CV      -0.699000
     21 O51         -4.6180     1.3830    -1.7110 oh         1 2CV      -0.699000
     22 O53         -6.0910     1.9910     1.5560 oh         1 2CV      -0.693000
     23 C60         -0.0490    -4.1070     0.1970 c3         1 2CV       0.137600
     24 O63         -1.0610    -4.4140     1.1270 oh         1 2CV      -0.657000
     25 C1           9.9720     2.0800     0.0790 c3         1 2CV      -0.075400
     26 C0          11.4000     1.7280    -0.3130 c3         1 2CV      -0.088100
     27 H91C         9.2530     0.0540     0.1350 hc         1 2CV       0.036700
     28 H92C         9.0140     0.8530    -1.4040 hc         1 2CV       0.036700
     29 H121         7.4870     1.4970     1.1630 hc         1 2CV       0.037700
     30 H122         7.2520     2.3090    -0.3680 hc         1 2CV       0.037700
     31 H11C         9.6870     3.0320    -0.3800 hc         1 2CV       0.036700
     32 H12C         9.9190     2.2400     1.1610 hc         1 2CV       0.036700
     33 H151         6.5520     0.1540    -1.4160 hc         1 2CV       0.036200
     34 H152         6.8090    -0.6760     0.1040 hc         1 2CV       0.036200
     35 H181         5.0710     0.7550     1.1880 hc         1 2CV       0.040200
     36 H182         4.8160     1.6020    -0.3210 hc         1 2CV       0.040200
     37 H211         4.0670    -0.5130    -1.4020 hc         1 2CV       0.033700
     38 H212         4.3610    -1.3910     0.0840 hc         1 2CV       0.033700
     39 H241         2.6760     0.0130     1.2660 hc         1 2CV       0.055700
     40 H242         2.3830     0.9200    -0.2000 hc         1 2CV       0.055700
     41 H271         1.5840    -1.1360    -1.3470 hc         1 2CV       0.053700
     42 H272         1.9600    -2.0940     0.0570 hc         1 2CV       0.053700
     43 H351        -1.4230    -3.2320    -1.1940 h1         1 2CV       0.056700
     44 H352         0.2400    -2.8130    -1.4690 h1         1 2CV       0.056700
     45 H361        -2.6120    -2.3880     0.5800 h1         1 2CV       0.072700
     46 H362        -2.0130    -1.0610     1.5440 h1         1 2CV       0.072700
     47 H601         0.1750    -4.9600    -0.4580 h1         1 2CV       0.023700
     48 H602         0.8870    -3.8390     0.7010 h1         1 2CV       0.023700
     49 H37         -2.2460     0.4800    -0.3970 h1         1 2CV       0.099700
     50 H40         -4.9150    -0.9110    -0.3140 h1         1 2CV       0.058700
     51 H47         -3.3680    -1.7160    -1.7480 ho         1 2CV       0.490000
     52 H41         -4.0540     1.9850     0.1080 h1         1 2CV       0.071700
     53 H49         -4.0900     0.4700     1.9720 ho         1 2CV       0.517000
     54 H42         -6.7610     0.6530     0.2210 h1         1 2CV       0.089700
     55 H51         -4.9910     0.6090    -2.1460 ho         1 2CV       0.507000
     56 H431        -6.2310     3.4970    -0.7420 h1         1 2CV       0.028200
     57 H432        -6.9670     2.1970    -1.6770 h1         1 2CV       0.028200
     58 H53         -5.6410     2.8430     1.5820 ho         1 2CV       0.497000
     59 H44         -8.5470     3.5270    -0.6430 ho         1 2CV       0.502000
     60 H63         -0.7150    -5.0670     1.7410 ho         1 2CV       0.447000
     61 H01C        11.7220     0.8010     0.1640 hc         1 2CV       0.031367
     62 H02C        11.4920     1.5910    -1.3930 hc         1 2CV       0.031367
     63 H03C        12.1020     2.5100    -0.0190 hc         1 2CV       0.031367
@<TRIPOS>BOND
     1     1     2 1   
     2     1    25 1   
     3     1    27 1   
     4     1    28 1   
     5     2     3 1   
     6     2    29 1   
     7     2    30 1   
     8     3     4 1   
     9     3    33 1   
    10     3    34 1   
    11     4     5 1   
    12     4    35 1   
    13     4    36 1   
    14     5     6 1   
    15     5    37 1   
    16     5    38 1   
    17     6     7 1   
    18     6    39 1   
    19     6    40 1   
    20     7     8 1   
    21     7    41 1   
    22     7    42 1   
    23     8     9 1   
    24     8    10 2   
    25     9    11 1   
    26     9    12 1   
    27    11    23 1   
    28    11    43 1   
    29    11    44 1   
    30    12    13 1   
    31    12    45 1   
    32    12    46 1   
    33    13    14 1   
    34    13    19 1   
    35    13    49 1   
    36    14    15 1   
    37    14    20 1   
    38    14    50 1   
    39    15    16 1   
    40    15    21 1   
    41    15    52 1   
    42    16    17 1   
    43    16    22 1   
    44    16    54 1   
    45    17    18 1   
    46    17    56 1   
    47    17    57 1   
    48    18    59 1   
    49    19    51 1   
    50    20    53 1   
    51    21    55 1   
    52    22    58 1   
    53    23    24 1   
    54    23    47 1   
    55    23    48 1   
    56    24    60 1   
    57    25    26 1   
    58    25    31 1   
    59    25    32 1   
    60    26    61 1   
    61    26    62 1   
    62    26    63 1   
@<TRIPOS>SUBSTRUCTURE
     1 2CV         1 TEMP              0 ****  ****    0 ROOT
