@<TRIPOS>MOLECULE
2CX
   50    53     1     0     0
SMALL
No Charge or Current Charge


@<TRIPOS>ATOM
      1 C10         -2.7260     2.1930     0.6430 ca         1 2CX      -0.145000
      2 C13         -5.1820     1.1930    -0.4300 ca         1 2CX      -0.050500
      3 C15         -4.0850    -1.1450    -0.0080 cp         1 2CX      -0.082500
      4 C17         -2.4530    -2.8550     0.6550 ca         1 2CX      -0.145000
      5 C20         -5.0020    -2.1300    -0.4200 ca         1 2CX      -0.050500
      6 C21          3.3290     0.1440    -0.8060 c3         1 2CX       0.203500
      7 C22          3.8190    -1.1760    -0.2540 cc         1 2CX       0.100300
      8 C24          4.2330    -3.3080     0.2660 cd         1 2CX      -0.193000
      9 O01          1.3980     3.2300     0.5250 o          1 2CX      -0.534500
     10 S02          2.4870     2.6840    -0.2910 s6         1 2CX       1.226100
     11 C04          1.6240     0.4390     1.0400 c3         1 2CX       0.189800
     12 C05          0.2460     0.1750     0.3480 c3         1 2CX       0.108300
     13 O06          0.3510    -0.8450    -0.6700 oh         1 2CX      -0.645000
     14 N08         -2.1980    -0.3080     0.8140 na         1 2CX      -0.095600
     15 C09         -2.9750     0.8210     0.5070 ca         1 2CX       0.004800
     16 C11         -3.7420     3.0790     0.2260 ca         1 2CX      -0.078500
     17 C12         -4.9590     2.5830    -0.3060 ca         1 2CX      -0.145500
     18 C14         -4.1650     0.3140    -0.0130 cp         1 2CX      -0.082500
     19 C16         -2.8460    -1.5180     0.5130 ca         1 2CX       0.004800
     20 C18         -3.3690    -3.8480     0.2430 ca         1 2CX      -0.078500
     21 C19         -4.6320    -3.4880    -0.2900 ca         1 2CX      -0.145500
     22 C23          3.4590    -2.4620    -0.5540 cd         1 2CX      -0.175000
     23 C25          5.0370    -2.5070     1.0310 cc         1 2CX       0.135900
     24 O26          4.7970    -1.1870     0.7190 os         1 2CX      -0.213000
     25 C27          1.8960     2.5960    -1.9750 c3         1 2CX      -0.370100
     26 O28          3.8080     3.3160    -0.2480 o          1 2CX      -0.534500
     27 H1          -1.7900     2.5650     1.0520 ha         1 2CX       0.113500
     28 H2          -6.1150     0.8120    -0.8380 ha         1 2CX       0.116500
     29 H3          -1.4830    -3.1270     1.0640 ha         1 2CX       0.113500
     30 H4          -5.9710    -1.8530    -0.8290 ha         1 2CX       0.116500
     31 H5           4.1980     0.6410    -1.2560 h1         1 2CX       0.068700
     32 H6           2.6300    -0.0660    -1.6260 h1         1 2CX       0.068700
     33 H7           4.2050    -4.3930     0.2920 ha         1 2CX       0.144000
     34 H8           1.9710    -0.5090     1.4720 h1         1 2CX       0.072200
     35 H9           1.4410     1.0920     1.9050 h1         1 2CX       0.072200
     36 H10         -0.0840     1.1160    -0.1110 h1         1 2CX       0.092700
     37 H11          0.5270    -1.6990    -0.2210 ho         1 2CX       0.442000
     38 H12         -0.5750    -1.1740     1.8540 h1         1 2CX       0.065200
     39 H13         -0.8600     0.5340     2.1800 h1         1 2CX       0.065200
     40 H14         -3.5890     4.1530     0.3130 ha         1 2CX       0.111500
     41 H15         -5.7310     3.2810    -0.6230 ha         1 2CX       0.114000
     42 H16         -3.1030    -4.8980     0.3360 ha         1 2CX       0.111500
     43 H17         -5.3260    -4.2650    -0.6020 ha         1 2CX       0.114000
     44 H18          2.7180    -2.7660    -1.2860 ha         1 2CX       0.137000
     45 H19          5.7790    -2.7260     1.7860 h4         1 2CX       0.057100
     46 H20          1.6480     3.6160    -2.2830 h1         1 2CX       0.104033
     47 H21          2.6990     2.1850    -2.5950 h1         1 2CX       0.104033
     48 H22          1.0110     1.9530    -1.9860 h1         1 2CX       0.104033
     49 C07         -0.8390    -0.2200     1.3830 c3         1 2CX       0.055600
     50 N03          2.7040     1.0420     0.2020 n3         1 2CX      -0.769500
@<TRIPOS>BOND
     1     1    15 ar  
     2     1    16 ar  
     3     1    27 1   
     4     2    17 ar  
     5     2    18 ar  
     6     2    28 1   
     7     3     5 ar  
     8     3    18 1   
     9     3    19 ar  
    10     4    19 ar  
    11     4    20 ar  
    12     4    29 1   
    13     5    21 ar  
    14     5    30 1   
    15     6     7 1   
    16     6    31 1   
    17     6    32 1   
    18     6    50 1   
    19     7    22 2   
    20     7    24 1   
    21     8    22 1   
    22     8    23 2   
    23     8    33 1   
    24     9    10 2   
    25    10    25 1   
    26    10    26 2   
    27    10    50 1   
    28    11    12 1   
    29    11    34 1   
    30    11    35 1   
    31    11    50 1   
    32    12    13 1   
    33    12    36 1   
    34    12    49 1   
    35    13    37 1   
    36    14    15 1   
    37    14    19 1   
    38    14    49 1   
    39    15    18 ar  
    40    16    17 ar  
    41    16    40 1   
    42    17    41 1   
    43    20    21 ar  
    44    20    42 1   
    45    21    43 1   
    46    22    44 1   
    47    23    24 1   
    48    23    45 1   
    49    25    46 1   
    50    25    47 1   
    51    25    48 1   
    52    38    49 1   
    53    39    49 1   
@<TRIPOS>SUBSTRUCTURE
     1 2CX         1 TEMP              0 ****  ****    0 ROOT
