@<TRIPOS>MOLECULE
2CX
   50    53     1     0     0
SMALL
bcc


@<TRIPOS>ATOM
      1 C10         -2.8570     2.1020     1.1930 ca         1 2CX      -0.163000
      2 C13         -5.3320     1.4240     0.0010 ca         1 2CX      -0.068500
      3 C15         -4.2520    -0.9400    -0.1710 cp         1 2CX      -0.082500
      4 C17         -2.5600    -2.6860     0.0620 ca         1 2CX      -0.163000
      5 C20         -5.1300    -1.8430    -0.7650 ca         1 2CX      -0.068500
      6 C21          3.2120    -0.4790    -0.9020 c3         1 2CX       0.203500
      7 C22          4.0760    -1.2610     0.0160 cc         1 2CX       0.210000
      8 C24          5.1360    -2.7340     1.3090 cd         1 2CX      -0.276300
      9 O01          1.8710     2.9520     0.2060 o          1 2CX      -0.605300
     10 S02          2.5750     2.1150    -0.7550 s6         1 2CX       1.256900
     11 C04          1.4510     0.1940     0.7570 c3         1 2CX       0.189800
     12 C05          0.0350     0.1700     0.1900 c3         1 2CX       0.085100
     13 O06         -0.0700    -0.5790    -0.9950 oh         1 2CX      -0.582800
     14 N08         -2.3050    -0.3070     0.8090 na         1 2CX      -0.066300
     15 C09         -3.1120     0.8060     0.7540 ca         1 2CX       0.004800
     16 C11         -3.8580     3.0450     1.0250 ca         1 2CX      -0.096500
     17 C12         -5.0840     2.7150     0.4350 ca         1 2CX      -0.163500
     18 C14         -4.3410     0.4590     0.1580 cp         1 2CX      -0.082500
     19 C16         -2.9730    -1.3670     0.2390 ca         1 2CX       0.004800
     20 C18         -3.4510    -3.5650    -0.5290 ca         1 2CX      -0.096500
     21 C19         -4.7240    -3.1540    -0.9420 ca         1 2CX      -0.163500
     22 C23          4.0480    -2.5600     0.4000 cd         1 2CX      -0.258300
     23 C25          5.7330    -1.5230     1.4050 cc         1 2CX       0.245600
     24 O26          5.0990    -0.6240     0.6250 os         1 2CX      -0.301800
     25 C27          1.6870     2.1660    -2.2980 c3         1 2CX      -0.259300
     26 O28          3.9690     2.4040    -1.0620 o          1 2CX      -0.605300
     27 H1          -1.9150     2.3790     1.6490 ha         1 2CX       0.131500
     28 H2          -6.2800     1.1690    -0.4560 ha         1 2CX       0.134500
     29 H3          -1.5820    -3.0280     0.3750 ha         1 2CX       0.131500
     30 H4          -6.1140    -1.5240    -1.0850 ha         1 2CX       0.134500
     31 H5           3.8170    -0.0300    -1.6920 h1         1 2CX       0.068700
     32 H6           2.5210    -1.1640    -1.3970 h1         1 2CX       0.068700
     33 H7           5.4270    -3.6350     1.8230 ha         1 2CX       0.162000
     34 H8           1.7260    -0.8000     1.1220 h1         1 2CX       0.072200
     35 H9           1.4860     0.8520     1.6260 h1         1 2CX       0.072200
     36 H10         -0.2470     1.1900    -0.0900 h1         1 2CX       0.092700
     37 H11          0.1420    -1.5010    -0.8150 ho         1 2CX       0.403000
     38 H12         -0.6810    -1.3170     1.5980 h1         1 2CX       0.065200
     39 H13         -0.8650     0.3310     2.1480 h1         1 2CX       0.065200
     40 H14         -3.6840     4.0610     1.3560 ha         1 2CX       0.129500
     41 H15         -5.8410     3.4790     0.3180 ha         1 2CX       0.132000
     42 H16         -3.1530    -4.5950    -0.6770 ha         1 2CX       0.129500
     43 H17         -5.3930    -3.8690    -1.4030 ha         1 2CX       0.132000
     44 H18          3.3370    -3.3040     0.0760 ha         1 2CX       0.155000
     45 H19          6.5810    -1.1650     1.9660 h4         1 2CX       0.057100
     46 H20          1.7550     3.1830    -2.6830 h1         1 2CX       0.104033
     47 H21          2.1450     1.4780    -3.0050 h1         1 2CX       0.104033
     48 H22          0.6470     1.8990    -2.1390 h1         1 2CX       0.104033
     49 C07         -0.9410    -0.3080     1.2660 c3         1 2CX       0.026300
     50 N03          2.4850     0.5740    -0.1960 n3         1 2CX      -0.769500
@<TRIPOS>BOND
     1     1    15 ar  
     2     1    16 ar  
     3     1    27 1   
     4     2    17 ar  
     5     2    18 ar  
     6     2    28 1   
     7     3     5 ar  
     8     3    18 1   
     9     3    19 ar  
    10     4    19 ar  
    11     4    20 ar  
    12     4    29 1   
    13     5    21 ar  
    14     5    30 1   
    15     6     7 1   
    16     6    31 1   
    17     6    32 1   
    18     6    50 1   
    19     7    22 2   
    20     7    24 1   
    21     8    22 1   
    22     8    23 2   
    23     8    33 1   
    24     9    10 2   
    25    10    25 1   
    26    10    26 2   
    27    10    50 1   
    28    11    12 1   
    29    11    34 1   
    30    11    35 1   
    31    11    50 1   
    32    12    13 1   
    33    12    36 1   
    34    12    49 1   
    35    13    37 1   
    36    14    15 1   
    37    14    19 1   
    38    14    49 1   
    39    15    18 ar  
    40    16    17 ar  
    41    16    40 1   
    42    17    41 1   
    43    20    21 ar  
    44    20    42 1   
    45    21    43 1   
    46    22    44 1   
    47    23    24 1   
    48    23    45 1   
    49    25    46 1   
    50    25    47 1   
    51    25    48 1   
    52    38    49 1   
    53    39    49 1   
@<TRIPOS>SUBSTRUCTURE
     1 2CX         1 TEMP              0 ****  ****    0 ROOT
