@<TRIPOS>MOLECULE
2CY
   41    43     1     0     0
SMALL
No Charge or Current Charge


@<TRIPOS>ATOM
      1 N1           6.1210    -0.0740    -0.0250 nb         1 2CY      -0.303000
      2 C2           6.0040     1.2560    -0.0240 ca         1 2CY       0.431900
      3 N3           4.8860     1.9770    -0.0020 nb         1 2CY      -0.363000
      4 C4           3.7500     1.2770     0.0180 ca         1 2CY       0.459900
      5 C5           3.7160    -0.1380     0.0060 ca         1 2CY      -0.250000
      6 C6           4.9780    -0.7880    -0.0110 ca         1 2CY       0.134000
      7 C7           2.5250    -0.9140     0.0050 ca         1 2CY       0.208100
      8 C8           2.6180    -2.3240    -0.0000 ca         1 2CY      -0.255000
      9 C9           3.8670    -2.9580    -0.0080 ca         1 2CY      -0.035000
     10 C10          5.0370    -2.1900    -0.0160 ca         1 2CY      -0.157000
     11 N11          7.1560     1.9580    -0.0380 nv         1 2CY      -1.057900
     12 N12          2.6520     2.0650     0.0560 nv         1 2CY      -1.070900
     13 O13          1.2880    -0.2910    -0.0040 os         1 2CY      -0.377100
     14 C14          0.0480    -1.0200     0.0010 c3         1 2CY       0.171600
     15 C15         -1.0950     0.0100    -0.0050 c3         1 2CY      -0.091400
     16 C16         -2.4840    -0.6510     0.0030 c3         1 2CY       0.167600
     17 O17         -3.4650     0.3990    -0.0040 os         1 2CY      -0.344100
     18 C18         -4.8190     0.1400     0.0000 ca         1 2CY       0.171100
     19 C19         -5.3430    -1.1720     0.0110 ca         1 2CY      -0.218000
     20 C20         -6.7350    -1.3770     0.0150 ca         1 2CY      -0.046000
     21 C21         -7.6040    -0.2730     0.0080 ca         1 2CY      -0.188000
     22 C22         -7.0800     1.0280    -0.0030 ca         1 2CY       0.208000
     23 C23         -5.6940     1.2360    -0.0070 ca         1 2CY      -0.192000
     24 F24         -7.9170     2.0880    -0.0100 f          1 2CY      -0.176000
     25 H8           1.7310    -2.9510    -0.0010 ha         1 2CY       0.115000
     26 H9           3.9290    -4.0440    -0.0130 ha         1 2CY       0.111000
     27 H10          6.0040    -2.6890    -0.0270 ha         1 2CY       0.134000
     28 HN11         8.0160     1.4650     0.1870 hn         1 2CY       0.489000
     29 HN1A         7.1180     2.9450     0.2030 hn         1 2CY       0.489000
     30 HN12         2.7400     3.0260    -0.2630 hn         1 2CY       0.508000
     31 HN1B         1.7600     1.5990    -0.0950 hn         1 2CY       0.508000
     32 H14         -0.0310    -1.6600    -0.8880 h1         1 2CY       0.042200
     33 H14A        -0.0300    -1.6480     0.8990 h1         1 2CY       0.042200
     34 H15         -1.0000     0.6580     0.8750 hc         1 2CY       0.070200
     35 H15A        -1.0040     0.6440    -0.8940 hc         1 2CY       0.070200
     36 H16         -2.5920    -1.2890    -0.8850 h1         1 2CY       0.038700
     37 H16A        -2.5890    -1.2750     0.9010 h1         1 2CY       0.038700
     38 H19         -4.6910    -2.0410     0.0170 ha         1 2CY       0.120000
     39 H20         -7.1380    -2.3880     0.0240 ha         1 2CY       0.116000
     40 H21         -8.6800    -0.4240     0.0110 ha         1 2CY       0.135000
     41 H23         -5.2980     2.2470    -0.0150 ha         1 2CY       0.145000
@<TRIPOS>BOND
     1     1     2 ar  
     2     1     6 ar  
     3     2     3 ar  
     4     2    11 1   
     5     3     4 ar  
     6     4     5 ar  
     7     4    12 1   
     8     5     6 ar  
     9     5     7 ar  
    10     6    10 ar  
    11     7     8 ar  
    12     7    13 1   
    13     8     9 ar  
    14     8    25 1   
    15     9    10 ar  
    16     9    26 1   
    17    10    27 1   
    18    11    28 1   
    19    11    29 1   
    20    12    30 1   
    21    12    31 1   
    22    13    14 1   
    23    14    15 1   
    24    14    32 1   
    25    14    33 1   
    26    15    16 1   
    27    15    34 1   
    28    15    35 1   
    29    16    17 1   
    30    16    36 1   
    31    16    37 1   
    32    17    18 1   
    33    18    19 ar  
    34    18    23 ar  
    35    19    20 ar  
    36    19    38 1   
    37    20    21 ar  
    38    20    39 1   
    39    21    22 ar  
    40    21    40 1   
    41    22    23 ar  
    42    22    24 1   
    43    23    41 1   
@<TRIPOS>SUBSTRUCTURE
     1 2CY         1 TEMP              0 ****  ****    0 ROOT
