@<TRIPOS>MOLECULE
2CY
   41    43     1     0     0
SMALL
bcc


@<TRIPOS>ATOM
      1 N1           6.0450    -0.1730    -0.0170 nb         1 2CY      -0.829000
      2 C2           5.9980     1.1430    -0.0340 ca         1 2CY       0.957900
      3 N3           4.8940     1.9060    -0.0300 nb         1 2CY      -0.889000
      4 C4           3.7170     1.3080    -0.0150 ca         1 2CY       0.788200
      5 C5           3.6160    -0.1340    -0.0090 ca         1 2CY      -0.380600
      6 C6           4.8580    -0.8170    -0.0060 ca         1 2CY       0.527600
      7 C7           2.4120    -0.8870    -0.0010 ca         1 2CY       0.208100
      8 C8           2.4500    -2.2670     0.0090 ca         1 2CY      -0.273000
      9 C9           3.6890    -2.9220     0.0140 ca         1 2CY      -0.053000
     10 C10          4.8690    -2.2280     0.0070 ca         1 2CY      -0.240300
     11 N11          7.1710     1.8150    -0.0950 nv         1 2CY      -0.947500
     12 N12          2.6510     2.1100    -0.0030 nv         1 2CY      -0.960500
     13 O13          1.2610    -0.1900    -0.0060 os         1 2CY      -0.353900
     14 C14          0.0210    -0.8820    -0.0020 c3         1 2CY       0.148400
     15 C15         -1.0840     0.1540    -0.0070 c3         1 2CY      -0.091400
     16 C16         -2.4360    -0.5320    -0.0030 c3         1 2CY       0.144400
     17 O17         -3.4310     0.4790    -0.0070 os         1 2CY      -0.320900
     18 C18         -4.7260     0.1170    -0.0050 ca         1 2CY       0.171100
     19 C19         -5.1760    -1.2020    -0.0010 ca         1 2CY      -0.236000
     20 C20         -6.5430    -1.4550     0.0010 ca         1 2CY      -0.064000
     21 C21         -7.4740    -0.4300    -0.0020 ca         1 2CY      -0.206000
     22 C22         -6.9910     0.8670    -0.0060 ca         1 2CY       0.172900
     23 C23         -5.6470     1.1670    -0.0080 ca         1 2CY      -0.210000
     24 F24         -7.8690     1.8830    -0.0090 f          1 2CY      -0.140900
     25 H8           1.5470    -2.8590     0.0150 ha         1 2CY       0.133000
     26 H9           3.7010    -4.0040     0.0220 ha         1 2CY       0.129000
     27 H10          5.8220    -2.7400     0.0090 ha         1 2CY       0.152000
     28 HN11         8.0170     1.3130     0.1120 hn         1 2CY       0.433800
     29 HN1A         7.1680     2.7980     0.1110 hn         1 2CY       0.433800
     30 HN12         2.8000     3.1040    -0.0100 hn         1 2CY       0.452800
     31 HN1B         1.7130     1.7560     0.0040 hn         1 2CY       0.452800
     32 H14         -0.0510    -1.5270    -0.8840 h1         1 2CY       0.042200
     33 H14A        -0.0510    -1.5190     0.8860 h1         1 2CY       0.042200
     34 H15         -0.9930     0.7940     0.8740 hc         1 2CY       0.070200
     35 H15A        -0.9940     0.7860    -0.8940 hc         1 2CY       0.070200
     36 H16         -2.5400    -1.1750    -0.8840 h1         1 2CY       0.038700
     37 H16A        -2.5390    -1.1670     0.8840 h1         1 2CY       0.038700
     38 H19         -4.4900    -2.0360     0.0020 ha         1 2CY       0.138000
     39 H20         -6.8840    -2.4820     0.0050 ha         1 2CY       0.134000
     40 H21         -8.5370    -0.6270     0.0000 ha         1 2CY       0.153000
     41 H23         -5.3090     2.1960    -0.0120 ha         1 2CY       0.163000
@<TRIPOS>BOND
     1     1     2 ar  
     2     1     6 ar  
     3     2     3 ar  
     4     2    11 1   
     5     3     4 ar  
     6     4     5 ar  
     7     4    12 1   
     8     5     6 ar  
     9     5     7 ar  
    10     6    10 ar  
    11     7     8 ar  
    12     7    13 1   
    13     8     9 ar  
    14     8    25 1   
    15     9    10 ar  
    16     9    26 1   
    17    10    27 1   
    18    11    28 1   
    19    11    29 1   
    20    12    30 1   
    21    12    31 1   
    22    13    14 1   
    23    14    15 1   
    24    14    32 1   
    25    14    33 1   
    26    15    16 1   
    27    15    34 1   
    28    15    35 1   
    29    16    17 1   
    30    16    36 1   
    31    16    37 1   
    32    17    18 1   
    33    18    19 ar  
    34    18    23 ar  
    35    19    20 ar  
    36    19    38 1   
    37    20    21 ar  
    38    20    39 1   
    39    21    22 ar  
    40    21    40 1   
    41    22    23 ar  
    42    22    24 1   
    43    23    41 1   
@<TRIPOS>SUBSTRUCTURE
     1 2CY         1 TEMP              0 ****  ****    0 ROOT
