@<TRIPOS>MOLECULE
2CZ
   30    30     1     0     0
SMALL
abcg2


@<TRIPOS>ATOM
      1 N1          -0.5620     2.2620    -0.2780 n7         1 2CZ      -0.872400
      2 C2           0.3720     1.3040    -0.8260 c3         1 2CZ       0.145800
      3 N2           2.0190    -0.4420    -0.3470 ns         1 2CZ      -0.494900
      4 C3           0.7080     0.0570     0.0190 c3         1 2CZ       0.086700
      5 C4          -0.3020    -1.0640    -0.2190 c3         1 2CZ       0.169300
      6 O4           0.1770    -2.2210     0.4270 oh         1 2CZ      -0.716000
      7 C5          -1.7220    -0.7720     0.2640 c3         1 2CZ       0.140300
      8 O5          -2.4720    -1.8900    -0.1590 oh         1 2CZ      -0.677000
      9 C6          -2.3630     0.5280    -0.2310 c3         1 2CZ       0.134300
     10 O6          -3.7180     0.4220     0.1700 oh         1 2CZ      -0.737000
     11 C7          -1.7360     1.7620     0.4150 c3         1 2CZ       0.137800
     12 C8           3.1620     0.0520     0.1550 c          1 2CZ       0.602100
     13 O8           3.1860     0.9440     0.9950 o          1 2CZ      -0.617100
     14 C9           4.4270    -0.5680    -0.3830 c3         1 2CZ      -0.178100
     15 H02         -0.0700     2.8930     0.3390 hn         1 2CZ       0.429000
     16 H14          0.0260     0.9640    -1.8100 h1         1 2CZ       0.056700
     17 H03          1.2980     1.8470    -1.0140 h1         1 2CZ       0.056700
     18 H04          2.0750    -1.1580    -1.0530 hn         1 2CZ       0.318500
     19 H05          0.7330     0.3250     1.0800 h1         1 2CZ       0.087700
     20 H06         -0.3550    -1.2240    -1.3090 h1         1 2CZ       0.036700
     21 H07         -0.4580    -2.9290     0.2750 ho         1 2CZ       0.524000
     22 H08         -1.6970    -0.7180     1.3660 h1         1 2CZ       0.053700
     23 H09         -3.3890    -1.7460     0.0980 ho         1 2CZ       0.473000
     24 H10         -2.2900     0.5950    -1.3250 h1         1 2CZ       0.058700
     25 H11         -4.2250     1.1110    -0.2710 ho         1 2CZ       0.517000
     26 H15         -1.5460     1.5300     1.4750 h1         1 2CZ       0.041200
     27 H12         -2.4860     2.5590     0.4140 h1         1 2CZ       0.041200
     28 H16          4.2540    -1.3570    -1.1130 hc         1 2CZ       0.060033
     29 H13          5.0380     0.2050    -0.8500 hc         1 2CZ       0.060033
     30 H01          5.0060    -0.9840     0.4420 hc         1 2CZ       0.060033
@<TRIPOS>BOND
     1     1     2 1   
     2     1    11 1   
     3     1    15 1   
     4     2     4 1   
     5     2    16 1   
     6     2    17 1   
     7     3     4 1   
     8     3    12 1   
     9     3    18 1   
    10     4     5 1   
    11     4    19 1   
    12     5     6 1   
    13     5     7 1   
    14     5    20 1   
    15     6    21 1   
    16     7     8 1   
    17     7     9 1   
    18     7    22 1   
    19     8    23 1   
    20     9    10 1   
    21     9    11 1   
    22     9    24 1   
    23    10    25 1   
    24    11    26 1   
    25    11    27 1   
    26    12    13 2   
    27    12    14 1   
    28    14    28 1   
    29    14    29 1   
    30    14    30 1   
@<TRIPOS>SUBSTRUCTURE
     1 2CZ         1 TEMP              0 ****  ****    0 ROOT
