@<TRIPOS>MOLECULE
2CZ
   30    30     1     0     0
SMALL
No Charge or Current Charge


@<TRIPOS>ATOM
      1 N1          -0.6000     2.2450    -0.3670 n7         1 2CZ      -0.872400
      2 C2           0.3780     1.2920    -0.9630 c3         1 2CZ       0.145800
      3 N2           2.0930    -0.4230    -0.3320 ns         1 2CZ      -0.494900
      4 C3           0.7210     0.0560    -0.0750 c3         1 2CZ       0.086700
      5 C4          -0.3130    -1.0960    -0.2900 c3         1 2CZ       0.169300
      6 O4           0.1850    -2.3460     0.2230 oh         1 2CZ      -0.716000
      7 C5          -1.7090    -0.8410     0.3440 c3         1 2CZ       0.140300
      8 O5          -2.5670    -1.9600     0.0620 oh         1 2CZ      -0.677000
      9 C6          -2.4220     0.4490    -0.1540 c3         1 2CZ       0.134300
     10 O6          -3.8090     0.3910     0.2590 oh         1 2CZ      -0.737000
     11 C7          -1.7520     1.7340     0.4230 c3         1 2CZ       0.137800
     12 C8           3.2440     0.2230     0.0490 c          1 2CZ       0.602100
     13 O8           3.2370     1.3080     0.6120 o          1 2CZ      -0.617100
     14 C9           4.5320    -0.5190    -0.2830 c3         1 2CZ      -0.178100
     15 H02         -0.0870     2.9160     0.2240 hn         1 2CZ       0.429000
     16 H14          0.0050     0.9270    -1.9300 h1         1 2CZ       0.056700
     17 H03          1.3030     1.8390    -1.1910 h1         1 2CZ       0.056700
     18 H04          2.1990    -1.3480    -0.7340 hn         1 2CZ       0.318500
     19 H05          0.6870     0.3620     0.9790 h1         1 2CZ       0.087700
     20 H06         -0.4590    -1.2040    -1.3740 h1         1 2CZ       0.036700
     21 H07         -0.6260    -2.9060     0.3080 ho         1 2CZ       0.524000
     22 H08         -1.5770    -0.7510     1.4320 h1         1 2CZ       0.053700
     23 H09         -3.4700    -1.5570     0.1030 ho         1 2CZ       0.473000
     24 H10         -2.3710     0.4870    -1.2520 h1         1 2CZ       0.058700
     25 H11         -4.2610     1.1860    -0.1140 ho         1 2CZ       0.517000
     26 H15         -1.4330     1.5240     1.4540 h1         1 2CZ       0.041200
     27 H12         -2.5070     2.5300     0.4930 h1         1 2CZ       0.041200
     28 H16          4.5510    -0.7380    -1.3560 hc         1 2CZ       0.060033
     29 H13          5.4280     0.0260     0.0350 hc         1 2CZ       0.060033
     30 H01          4.4900    -1.5210     0.1590 hc         1 2CZ       0.060033
@<TRIPOS>BOND
     1     1     2 1   
     2     1    11 1   
     3     1    15 1   
     4     2     4 1   
     5     2    16 1   
     6     2    17 1   
     7     3     4 1   
     8     3    12 1   
     9     3    18 1   
    10     4     5 1   
    11     4    19 1   
    12     5     6 1   
    13     5     7 1   
    14     5    20 1   
    15     6    21 1   
    16     7     8 1   
    17     7     9 1   
    18     7    22 1   
    19     8    23 1   
    20     9    10 1   
    21     9    11 1   
    22     9    24 1   
    23    10    25 1   
    24    11    26 1   
    25    11    27 1   
    26    12    13 2   
    27    12    14 1   
    28    14    28 1   
    29    14    29 1   
    30    14    30 1   
@<TRIPOS>SUBSTRUCTURE
     1 2CZ         1 TEMP              0 ****  ****    0 ROOT
