@<TRIPOS>MOLECULE
2D0
   16    17     1     0     0
SMALL
abcg2


@<TRIPOS>ATOM
      1 C1          -0.1630    -0.0990    -0.0140 ca         1 2D0       0.153400
      2 C2           0.4730     1.1550     0.0110 ca         1 2D0      -0.188000
      3 C3          -1.5570    -0.1140    -0.0310 ca         1 2D0       0.141000
      4 C4          -0.2250     2.3510     0.0200 ca         1 2D0      -0.058000
      5 C5          -2.2750     1.0690    -0.0230 ca         1 2D0      -0.091000
      6 C6          -1.6100     2.2930     0.0020 ca         1 2D0      -0.117000
      7 N7           0.6540    -1.1930    -0.0200 nc         1 2D0      -0.628100
      8 C8           1.9000    -0.8320    -0.0010 cd         1 2D0       0.664100
      9 S9           2.1950     0.9060     0.0280 ss         1 2D0      -0.042200
     10 N10          2.9320    -1.6750    -0.0170 nv         1 2D0      -1.039200
     11 CL1         -2.3770    -1.6350    -0.0610 cl         1 2D0      -0.179000
     12 H1           0.2910     3.3010     0.0400 ha         1 2D0       0.125000
     13 H2          -3.3560     1.0410    -0.0360 ha         1 2D0       0.130000
     14 H3          -2.1880     3.2070     0.0090 ha         1 2D0       0.119000
     15 H4           2.7600    -2.6650     0.0310 hn         1 2D0       0.504500
     16 H5           3.8820    -1.3630     0.0740 hn         1 2D0       0.504500
@<TRIPOS>BOND
     1     1     2 ar  
     2     1     3 ar  
     3     1     7 1   
     4     2     4 ar  
     5     2     9 1   
     6     3     5 ar  
     7     3    11 1   
     8     4     6 ar  
     9     4    12 1   
    10     5     6 ar  
    11     5    13 1   
    12     6    14 1   
    13     7     8 2   
    14     8     9 1   
    15     8    10 1   
    16    10    15 1   
    17    10    16 1   
@<TRIPOS>SUBSTRUCTURE
     1 2D0         1 TEMP              0 ****  ****    0 ROOT
