@<TRIPOS>MOLECULE
2D0
   16    17     1     0     0
SMALL
No Charge or Current Charge


@<TRIPOS>ATOM
      1 C1          -0.1260    -0.0980    -0.0490 ca         1 2D0       0.153400
      2 C2           0.5020     1.1410    -0.0190 ca         1 2D0      -0.188000
      3 C3          -1.5400    -0.1470    -0.0400 ca         1 2D0       0.141000
      4 C4          -0.2130     2.3480     0.0180 ca         1 2D0      -0.058000
      5 C5          -2.2800     1.0520    -0.0020 ca         1 2D0      -0.091000
      6 C6          -1.6190     2.2970     0.0260 ca         1 2D0      -0.117000
      7 N7           0.7080    -1.2240    -0.0840 nc         1 2D0      -0.628100
      8 C8           1.9450    -0.7550    -0.0840 cd         1 2D0       0.664100
      9 S9           2.2500     0.9970    -0.0350 ss         1 2D0      -0.042200
     10 N10          2.9160    -1.6820    -0.1060 nv         1 2D0      -1.039200
     11 Cl1         -2.3990    -1.6890    -0.0750 cl         1 2D0      -0.179000
     12 H1           0.3070     3.3030     0.0400 ha         1 2D0       0.125000
     13 H2          -3.3660     1.0140     0.0040 ha         1 2D0       0.130000
     14 H3          -2.1960     3.2190     0.0550 ha         1 2D0       0.119000
     15 H4           2.6150    -2.6210     0.1280 hn         1 2D0       0.504500
     16 H5           3.8310    -1.4090     0.2340 hn         1 2D0       0.504500
@<TRIPOS>BOND
     1     1     2 ar  
     2     1     3 ar  
     3     1     7 1   
     4     2     4 ar  
     5     2     9 1   
     6     3     5 ar  
     7     3    11 1   
     8     4     6 ar  
     9     4    12 1   
    10     5     6 ar  
    11     5    13 1   
    12     6    14 1   
    13     7     8 2   
    14     8     9 1   
    15     8    10 1   
    16    10    15 1   
    17    10    16 1   
@<TRIPOS>SUBSTRUCTURE
     1 2D0         1 TEMP              0 ****  ****    0 ROOT
