@<TRIPOS>MOLECULE
2D1
   41    42     1     0     0
SMALL
No Charge or Current Charge


@<TRIPOS>ATOM
      1 O2          -2.2980    -2.3610    -0.4630 o          1 2D1      -0.533000
      2 S1          -1.9130    -1.0790    -1.0600 sy         1 2D1       1.147600
      3 O1          -2.1670    -0.7390    -2.4620 o          1 2D1      -0.533000
      4 N1          -2.6570     0.0960    -0.1410 n7         1 2D1      -0.863300
      5 C5          -3.9880     0.5560    -0.5640 c3         1 2D1       0.198800
      6 C4          -4.5050     1.6280     0.4200 c3         1 2D1      -0.079400
      7 C2          -5.8710     2.2570     0.0310 c3         1 2D1      -0.060700
      8 C3          -7.0200     1.2200    -0.0150 c3         1 2D1      -0.089100
      9 C1          -6.2300     3.4280     0.9740 c3         1 2D1      -0.089100
     10 C6          -0.2000    -0.7180    -0.6500 ca         1 2D1      -0.309500
     11 C11          0.3610    -1.2220     0.5390 ca         1 2D1      -0.021500
     12 C10          1.6980    -0.9380     0.8640 ca         1 2D1      -0.112500
     13 C9           2.4970    -0.1320     0.0220 ca         1 2D1      -0.059500
     14 C8           1.9280     0.3500    -1.1800 ca         1 2D1      -0.112500
     15 C7           0.5910     0.0690    -1.5110 ca         1 2D1      -0.021500
     16 C12          3.9080     0.1240     0.3640 cc         1 2D1       0.330500
     17 N2           4.6200    -0.6730     1.2230 nc         1 2D1      -0.643000
     18 C14          5.8440    -0.1820     1.3510 cd         1 2D1       0.447700
     19 C15          6.8600    -0.8470     2.2330 c3         1 2D1      -0.132400
     20 S2           6.2060     1.2850     0.4450 ss         1 2D1      -0.026400
     21 C13          4.5560     1.2230    -0.1500 cd         1 2D1      -0.251000
     22 H1          -1.9850     0.8580    -0.1970 hn         1 2D1       0.476000
     23 H2          -3.9540     0.9870    -1.5740 h1         1 2D1       0.053700
     24 H3          -4.6900    -0.2890    -0.5820 h1         1 2D1       0.053700
     25 H4          -4.5810     1.1860     1.4220 hc         1 2D1       0.050200
     26 H5          -3.7580     2.4280     0.4860 hc         1 2D1       0.050200
     27 H6          -5.7680     2.6770    -0.9780 hc         1 2D1       0.042700
     28 H7          -7.9720     1.7090    -0.2560 hc         1 2D1       0.035200
     29 H8          -6.8390     0.4590    -0.7830 hc         1 2D1       0.035200
     30 H9          -7.1310     0.7160     0.9530 hc         1 2D1       0.035200
     31 H10         -6.3500     3.0760     2.0060 hc         1 2D1       0.035200
     32 H11         -5.4430     4.1920     0.9620 hc         1 2D1       0.035200
     33 H12         -7.1670     3.9050     0.6630 hc         1 2D1       0.035200
     34 H13         -0.2350    -1.8340     1.2150 ha         1 2D1       0.135000
     35 H14          2.1100    -1.3410     1.7860 ha         1 2D1       0.128500
     36 H15          2.5190     0.9390    -1.8770 ha         1 2D1       0.128500
     37 H16          0.1810     0.4590    -2.4410 ha         1 2D1       0.135000
     38 H17          7.0370    -1.8800     1.9130 hc         1 2D1       0.061033
     39 H18          7.8180    -0.3160     2.2020 hc         1 2D1       0.061033
     40 H19          6.5190    -0.8660     3.2740 hc         1 2D1       0.061033
     41 H20          4.1780     1.9910    -0.8110 h4         1 2D1       0.164000
@<TRIPOS>BOND
     1     1     2 2   
     2     2     3 2   
     3     2     4 1   
     4     2    10 1   
     5     4     5 1   
     6     4    22 1   
     7     5     6 1   
     8     5    23 1   
     9     5    24 1   
    10     6     7 1   
    11     6    25 1   
    12     6    26 1   
    13     7     8 1   
    14     7     9 1   
    15     7    27 1   
    16     8    28 1   
    17     8    29 1   
    18     8    30 1   
    19     9    31 1   
    20     9    32 1   
    21     9    33 1   
    22    10    11 ar  
    23    10    15 ar  
    24    11    12 ar  
    25    11    34 1   
    26    12    13 ar  
    27    12    35 1   
    28    13    14 ar  
    29    13    16 1   
    30    14    15 ar  
    31    14    36 1   
    32    15    37 1   
    33    16    17 1   
    34    16    21 2   
    35    17    18 2   
    36    18    19 1   
    37    18    20 1   
    38    19    38 1   
    39    19    39 1   
    40    19    40 1   
    41    20    21 1   
    42    21    41 1   
@<TRIPOS>SUBSTRUCTURE
     1 2D1         1 TEMP              0 ****  ****    0 ROOT
