@<TRIPOS>MOLECULE
2D1
   41    42     1     0     0
SMALL
abcg2


@<TRIPOS>ATOM
      1 O2          -2.2930    -3.2910     0.4290 o          1 2D1      -0.533000
      2 S1          -2.2930    -2.0610    -0.3470 sy         1 2D1       1.147600
      3 O1          -2.7580    -2.0680    -1.7250 o          1 2D1      -0.533000
      4 N1          -3.2430    -0.9980     0.4740 n7         1 2D1      -0.863300
      5 C5          -3.4590     0.3380    -0.0800 c3         1 2D1       0.198800
      6 C4          -4.4230     1.1040     0.8130 c3         1 2D1      -0.079400
      7 C2          -4.6980     2.5260     0.3220 c3         1 2D1      -0.060700
      8 C3          -5.4430     2.5410    -1.0090 c3         1 2D1      -0.089100
      9 C1          -5.4780     3.3030     1.3780 c3         1 2D1      -0.089100
     10 C6          -0.6490    -1.4030    -0.3270 ca         1 2D1      -0.309500
     11 C11          0.1690    -1.6580     0.7660 ca         1 2D1      -0.021500
     12 C10          1.4370    -1.1070     0.8100 ca         1 2D1      -0.112500
     13 C9           1.9030    -0.2960    -0.2270 ca         1 2D1      -0.059500
     14 C8           1.0650    -0.0580    -1.3180 ca         1 2D1      -0.112500
     15 C7          -0.2040    -0.6050    -1.3740 ca         1 2D1      -0.021500
     16 C12          3.2500     0.2810    -0.1550 cc         1 2D1       0.330500
     17 N2           4.0460    -0.0140     0.9210 nc         1 2D1      -0.643000
     18 C14          5.1990     0.5630     0.8510 cd         1 2D1       0.447700
     19 C15          6.2820     0.4290     1.8610 c3         1 2D1      -0.132400
     20 S2           5.4010     1.5350    -0.5700 ss         1 2D1      -0.026400
     21 C13          3.8240     1.1130    -1.0700 cd         1 2D1      -0.251000
     22 H1          -3.0270    -1.0000     1.4660 hn         1 2D1       0.476000
     23 H2          -2.5220     0.9000    -0.1720 h1         1 2D1       0.053700
     24 H3          -3.8750     0.2220    -1.0800 h1         1 2D1       0.053700
     25 H4          -5.3660     0.5540     0.8870 hc         1 2D1       0.050200
     26 H5          -4.0040     1.1520     1.8240 hc         1 2D1       0.050200
     27 H6          -3.7330     3.0270     0.1790 hc         1 2D1       0.042700
     28 H7          -5.6320     3.5650    -1.3360 hc         1 2D1       0.035200
     29 H8          -4.8880     2.0460    -1.8070 hc         1 2D1       0.035200
     30 H9          -6.4100     2.0410    -0.9170 hc         1 2D1       0.035200
     31 H10         -6.4350     2.8200     1.5910 hc         1 2D1       0.035200
     32 H11         -4.9250     3.3680     2.3160 hc         1 2D1       0.035200
     33 H12         -5.6880     4.3190     1.0430 hc         1 2D1       0.035200
     34 H13         -0.1650    -2.2880     1.5800 ha         1 2D1       0.135000
     35 H14          2.0750    -1.3120     1.6580 ha         1 2D1       0.128500
     36 H15          1.3970     0.5560    -2.1450 ha         1 2D1       0.128500
     37 H16         -0.8300    -0.4140    -2.2350 ha         1 2D1       0.135000
     38 H17          7.1560    -0.0680     1.4380 hc         1 2D1       0.061033
     39 H18          6.6040     1.4040     2.2300 hc         1 2D1       0.061033
     40 H19          5.9260    -0.1600     2.7030 hc         1 2D1       0.061033
     41 H20          3.4130     1.4970    -1.9900 h4         1 2D1       0.164000
@<TRIPOS>BOND
     1     1     2 2   
     2     2     3 2   
     3     2     4 1   
     4     2    10 1   
     5     4     5 1   
     6     4    22 1   
     7     5     6 1   
     8     5    23 1   
     9     5    24 1   
    10     6     7 1   
    11     6    25 1   
    12     6    26 1   
    13     7     8 1   
    14     7     9 1   
    15     7    27 1   
    16     8    28 1   
    17     8    29 1   
    18     8    30 1   
    19     9    31 1   
    20     9    32 1   
    21     9    33 1   
    22    10    11 ar  
    23    10    15 ar  
    24    11    12 ar  
    25    11    34 1   
    26    12    13 ar  
    27    12    35 1   
    28    13    14 ar  
    29    13    16 1   
    30    14    15 ar  
    31    14    36 1   
    32    15    37 1   
    33    16    17 1   
    34    16    21 2   
    35    17    18 2   
    36    18    19 1   
    37    18    20 1   
    38    19    38 1   
    39    19    39 1   
    40    19    40 1   
    41    20    21 1   
    42    21    41 1   
@<TRIPOS>SUBSTRUCTURE
     1 2D1         1 TEMP              0 ****  ****    0 ROOT
