@<TRIPOS>MOLECULE
2D2
   24    25     1     0     0
SMALL
abcg2


@<TRIPOS>ATOM
      1 C1          -0.3010     0.0250    -0.0090 cc         1 2D2       0.095500
      2 C2          -1.7510    -0.0530    -0.0220 ca         1 2D2      -0.065500
      3 C3           0.6840    -0.9090     0.0140 cd         1 2D2      -0.101000
      4 O4           0.2620     1.2590    -0.0210 os         1 2D2      -0.280000
      5 C5          -2.5480     1.0950    -0.0540 ca         1 2D2      -0.111000
      6 C6          -2.3810    -1.3030    -0.0040 ca         1 2D2      -0.111000
      7 C7           1.9290    -0.2080     0.0140 cd         1 2D2      -0.196600
      8 C8           1.6060     1.1190    -0.0070 cc         1 2D2       0.154300
      9 C9          -3.9320     0.9910    -0.0690 ca         1 2D2      -0.115500
     10 C10         -3.7620    -1.4000    -0.0190 ca         1 2D2      -0.115500
     11 C11          3.2860    -0.8580     0.0320 c          1 2D2       0.735600
     12 C12          2.3960     2.3710    -0.0160 c3         1 2D2      -0.118400
     13 C13         -4.5470    -0.2530    -0.0520 ca         1 2D2      -0.139000
     14 O14          4.2860    -0.1130     0.0070 o          1 2D2      -0.726000
     15 O15          3.2860    -2.1040     0.0690 o          1 2D2      -0.726000
     16 H1           0.5580    -1.9790     0.0280 ha         1 2D2       0.142000
     17 H2          -2.0950     2.0770    -0.0690 ha         1 2D2       0.121000
     18 H3          -1.7860    -2.2070     0.0230 ha         1 2D2       0.121000
     19 H4          -4.5330     1.8910    -0.0940 ha         1 2D2       0.098000
     20 H5          -4.2280    -2.3770    -0.0050 ha         1 2D2       0.098000
     21 H6           2.1950     2.9670    -0.9090 hc         1 2D2       0.048700
     22 H7           2.1670     2.9950     0.8510 hc         1 2D2       0.048700
     23 H8           3.4520     2.1250     0.0040 hc         1 2D2       0.048700
     24 H9          -5.6260    -0.3300    -0.0630 ha         1 2D2       0.096000
@<TRIPOS>BOND
     1     1     2 1   
     2     1     3 2   
     3     1     4 1   
     4     2     5 ar  
     5     2     6 ar  
     6     3     7 1   
     7     3    16 1   
     8     4     8 1   
     9     5     9 ar  
    10     5    17 1   
    11     6    10 ar  
    12     6    18 1   
    13     7     8 2   
    14     7    11 1   
    15     8    12 1   
    16     9    13 ar  
    17     9    19 1   
    18    10    13 ar  
    19    10    20 1   
    20    11    14 1   
    21    11    15 1   
    22    12    21 1   
    23    12    22 1   
    24    12    23 1   
    25    13    24 1   
@<TRIPOS>SUBSTRUCTURE
     1 2D2         1 TEMP              0 ****  ****    0 ROOT
