@<TRIPOS>MOLECULE
2D2
   24    25     1     0     0
SMALL
No Charge or Current Charge


@<TRIPOS>ATOM
      1 C1          -0.3140     0.1490    -0.0170 cc         1 2D2       0.095500
      2 C2          -1.7730    -0.0300    -0.0070 ca         1 2D2      -0.065500
      3 C3           0.6260    -0.8420    -0.0680 cd         1 2D2      -0.101000
      4 O4           0.2800     1.3840     0.0220 os         1 2D2      -0.280000
      5 C5          -2.6170     1.1020     0.0110 ca         1 2D2      -0.111000
      6 C6          -2.3650    -1.3140    -0.0150 ca         1 2D2      -0.111000
      7 C7           1.8900    -0.1980    -0.0590 cd         1 2D2      -0.196600
      8 C8           1.6400     1.1570    -0.0040 cc         1 2D2       0.154300
      9 C9          -4.0160     0.9570     0.0210 ca         1 2D2      -0.115500
     10 C10         -3.7630    -1.4580    -0.0050 ca         1 2D2      -0.115500
     11 C11          3.2300    -0.8420    -0.1010 c          1 2D2       0.735600
     12 C12          2.5480     2.3550     0.0310 c3         1 2D2      -0.118400
     13 C13         -4.5890    -0.3240     0.0130 ca         1 2D2      -0.139000
     14 O14          4.2350    -0.1490    -0.0870 o          1 2D2      -0.726000
     15 O15          3.2730    -2.0620    -0.1490 o          1 2D2      -0.726000
     16 H1           0.4530    -1.9110    -0.1080 ha         1 2D2       0.142000
     17 H2          -2.1910     2.1030     0.0180 ha         1 2D2       0.121000
     18 H3          -1.7510    -2.2100    -0.0280 ha         1 2D2       0.121000
     19 H4          -4.6530     1.8380     0.0350 ha         1 2D2       0.098000
     20 H5          -4.2060    -2.4510    -0.0110 ha         1 2D2       0.098000
     21 H6           3.1790     2.3920    -0.8650 hc         1 2D2       0.048700
     22 H7           1.9720     3.2870     0.0740 hc         1 2D2       0.048700
     23 H8           3.2020     2.3230     0.9100 hc         1 2D2       0.048700
     24 H9          -5.6710    -0.4370     0.0200 ha         1 2D2       0.096000
@<TRIPOS>BOND
     1     1     2 1   
     2     1     3 2   
     3     1     4 1   
     4     2     5 ar  
     5     2     6 ar  
     6     3     7 1   
     7     3    16 1   
     8     4     8 1   
     9     5     9 ar  
    10     5    17 1   
    11     6    10 ar  
    12     6    18 1   
    13     7     8 2   
    14     7    11 1   
    15     8    12 1   
    16     9    13 ar  
    17     9    19 1   
    18    10    13 ar  
    19    10    20 1   
    20    11    14 1   
    21    11    15 1   
    22    12    21 1   
    23    12    22 1   
    24    12    23 1   
    25    13    24 1   
@<TRIPOS>SUBSTRUCTURE
     1 2D2         1 TEMP              0 ****  ****    0 ROOT
