@<TRIPOS>MOLECULE
2D3
   24    25     1     0     0
SMALL
abcg2


@<TRIPOS>ATOM
      1 CAA          1.7180    14.3600    24.8780 c3         1 2D3       0.154900
      2 OAI          3.1400    14.4760    25.0710 os         1 2D3      -0.457100
      3 CAK          3.8970    13.4860    24.5690 c          1 2D3       0.644700
      4 OAC          3.4190    12.5370    23.9760 o          1 2D3      -0.496000
      5 CAO          5.3180    13.7030    24.8220 cc         1 2D3      -0.247600
      6 CAL          5.8810    14.7860    25.5060 cd         1 2D3      -0.058300
      7 CAB          5.3050    15.9850    26.1710 c3         1 2D3      -0.035800
      8 NAG          7.2060    14.5750    25.4800 na         1 2D3      -0.001200
      9 NAH          7.5750    13.4540    24.8410 nd         1 2D3      -0.480800
     10 CAN          6.4370    12.9000    24.4280 cc         1 2D3       0.264000
     11 CAM          6.5150    11.6500    23.6910 cc         1 2D3       0.142000
     12 CAE          5.6190    10.7040    23.2880 cd         1 2D3      -0.200000
     13 CAD          6.4140     9.7300    22.6370 cd         1 2D3       0.257900
     14 NAF          7.6810    10.0490    22.6350 nc         1 2D3      -0.352300
     15 OAJ          7.7590    11.2710    23.3050 os         1 2D3      -0.081700
     16 HAA1         1.2920    15.2420    25.3470 h1         1 2D3       0.050367
     17 HAA2         1.4800    14.3390    23.8160 h1         1 2D3       0.050367
     18 HAA3         1.3450    13.4550    25.3560 h1         1 2D3       0.050367
     19 HAB1         4.6130    15.6930    26.9600 hc         1 2D3       0.063367
     20 HAB2         6.1010    16.5900    26.6030 hc         1 2D3       0.063367
     21 HAB3         4.7470    16.5900    25.4560 hc         1 2D3       0.063367
     22 HAG          7.9150    15.1670    25.8900 hn         1 2D3       0.381000
     23 HAE          4.5570    10.7130    23.4340 ha         1 2D3       0.179000
     24 HAD          6.0980     8.8090    22.1710 h4         1 2D3       0.044100
@<TRIPOS>BOND
     1     1     2 1   
     2     1    16 1   
     3     1    17 1   
     4     1    18 1   
     5     2     3 1   
     6     3     4 2   
     7     3     5 1   
     8     5     6 2   
     9     5    10 1   
    10     6     7 1   
    11     6     8 1   
    12     7    19 1   
    13     7    20 1   
    14     7    21 1   
    15     8     9 1   
    16     8    22 1   
    17     9    10 2   
    18    10    11 1   
    19    11    12 2   
    20    11    15 1   
    21    12    13 1   
    22    12    23 1   
    23    13    14 2   
    24    13    24 1   
    25    14    15 1   
@<TRIPOS>SUBSTRUCTURE
     1 2D3         1 TEMP              0 ****  ****    0 ROOT
