@<TRIPOS>MOLECULE
2D3
   24    25     1     0     0
SMALL
No Charge or Current Charge


@<TRIPOS>ATOM
      1 CAA          1.7320    14.2610    24.8390 c3         1 2D3       0.154900
      2 OAI          3.1370    14.3180    25.1550 os         1 2D3      -0.457100
      3 CAK          4.0050    13.5470    24.4250 c          1 2D3       0.644700
      4 OAC          3.6220    12.8700    23.4840 o          1 2D3      -0.496000
      5 CAO          5.4380    13.7370    24.7830 cc         1 2D3      -0.247600
      6 CAL          5.9300    14.7790    25.5350 cd         1 2D3      -0.058300
      7 CAB          5.2530    15.9290    26.2440 c3         1 2D3      -0.035800
      8 NAG          7.3170    14.6650    25.4450 na         1 2D3      -0.001200
      9 NAH          7.7140    13.5720    24.6940 nd         1 2D3      -0.480800
     10 CAN          6.5770    12.9910    24.3440 cc         1 2D3       0.264000
     11 CAM          6.5890    11.7120    23.6480 cc         1 2D3       0.142000
     12 CAE          5.6110    10.7740    23.4810 cd         1 2D3      -0.200000
     13 CAD          6.2120     9.7040    22.7980 cd         1 2D3       0.257900
     14 NAF          7.4950     9.9090    22.5570 nc         1 2D3      -0.352300
     15 OAJ          7.7630    11.2040    23.1360 os         1 2D3      -0.081700
     16 HAA1         1.1640    14.9220    25.5060 h1         1 2D3       0.050367
     17 HAA2         1.5490    14.5830    23.8050 h1         1 2D3       0.050367
     18 HAA3         1.3440    13.2410    24.9600 h1         1 2D3       0.050367
     19 HAB1         4.5910    15.5670    27.0400 hc         1 2D3       0.063367
     20 HAB2         5.9830    16.6030    26.7080 hc         1 2D3       0.063367
     21 HAB3         4.6530    16.5250    25.5470 hc         1 2D3       0.063367
     22 HAG          7.9980    15.3010    25.8570 hn         1 2D3       0.381000
     23 HAE          4.5950    10.7770    23.8470 ha         1 2D3       0.179000
     24 HAD          5.7590     8.7700    22.4930 h4         1 2D3       0.044100
@<TRIPOS>BOND
     1     1     2 1   
     2     1    16 1   
     3     1    17 1   
     4     1    18 1   
     5     2     3 1   
     6     3     4 2   
     7     3     5 1   
     8     5     6 2   
     9     5    10 1   
    10     6     7 1   
    11     6     8 1   
    12     7    19 1   
    13     7    20 1   
    14     7    21 1   
    15     8     9 1   
    16     8    22 1   
    17     9    10 2   
    18    10    11 1   
    19    11    12 2   
    20    11    15 1   
    21    12    13 1   
    22    12    23 1   
    23    13    14 2   
    24    13    24 1   
    25    14    15 1   
@<TRIPOS>SUBSTRUCTURE
     1 2D3         1 TEMP              0 ****  ****    0 ROOT
