@<TRIPOS>MOLECULE
2D4
   42    45     1     0     0
SMALL
No Charge or Current Charge


@<TRIPOS>ATOM
      1 C8          -3.9120    -0.1530    -1.6280 cc         1 2D4       0.027000
      2 C11         -3.8340     0.9740    -2.4810 cc         1 2D4      -0.156000
      3 C10         -3.6100     2.1530    -1.8170 cd         1 2D4      -0.215000
      4 S2          -3.4900     1.8950    -0.0650 ss         1 2D4       0.319000
      5 C1          -3.7440     0.1650    -0.3050 cd         1 2D4      -0.487500
      6 S1          -3.7640    -0.9530     1.0530 sy         1 2D4       1.182600
      7 O2          -4.3070    -0.3150     2.2530 o          1 2D4      -0.532000
      8 O1          -4.1050    -2.3130     0.6290 o          1 2D4      -0.532000
      9 N           -2.1090    -0.9720     1.3420 nu         1 2D4      -0.857100
     10 C9          -1.0570    -0.9910     0.4210 ca         1 2D4       0.174000
     11 C6           0.0930    -0.2270     0.6820 ca         1 2D4      -0.080000
     12 C16         -1.1100    -1.7670    -0.7540 ca         1 2D4      -0.019000
     13 C15         -0.0360    -1.7590    -1.6630 ca         1 2D4      -0.209000
     14 C5           1.1030    -0.9820    -1.4030 ca         1 2D4       0.169100
     15 O3           2.1250    -0.9900    -2.3090 oh         1 2D4      -0.517100
     16 C2           1.1860    -0.2060    -0.2170 cp         1 2D4      -0.049000
     17 C3           2.3880     0.6280     0.0950 cp         1 2D4      -0.069000
     18 C4           3.6040     0.0420     0.5540 ca         1 2D4       0.019000
     19 C17          3.7180    -1.3550     0.7480 ca         1 2D4      -0.107000
     20 C19          4.9210    -1.9210     1.2020 ca         1 2D4      -0.097000
     21 C20          6.0270    -1.1010     1.4720 ca         1 2D4      -0.118000
     22 C18          5.9290     0.2880     1.2910 ca         1 2D4      -0.087000
     23 C12          4.7250     0.8600     0.8370 ca         1 2D4      -0.072000
     24 C14          4.6420     2.2530     0.6690 ca         1 2D4      -0.051000
     25 C13          3.4470     2.8390     0.2260 ca         1 2D4      -0.191000
     26 C7           2.3300     2.0390    -0.0580 ca         1 2D4       0.156100
     27 O4           1.1860     2.6490    -0.4900 oh         1 2D4      -0.527100
     28 H8          -4.0860    -1.1590    -2.0060 ha         1 2D4       0.157000
     29 H11         -3.9430     0.8920    -3.5580 ha         1 2D4       0.135000
     30 H10         -3.5090     3.1500    -2.2270 h4         1 2D4       0.151000
     31 H           -1.9960    -0.3720     2.1470 hn         1 2D4       0.484000
     32 H6           0.1480     0.3690     1.5890 ha         1 2D4       0.121000
     33 H16         -1.9790    -2.3830    -0.9640 ha         1 2D4       0.139000
     34 H15         -0.1000    -2.3610    -2.5660 ha         1 2D4       0.121000
     35 H3           1.8720    -1.5720    -3.0550 ho         1 2D4       0.465000
     36 H17          2.8770    -2.0140     0.5500 ha         1 2D4       0.120000
     37 H19          4.9950    -2.9970     1.3450 ha         1 2D4       0.113000
     38 H20          6.9580    -1.5400     1.8230 ha         1 2D4       0.114000
     39 H18          6.7900     0.9180     1.5060 ha         1 2D4       0.111000
     40 H14          5.5010     2.8840     0.8860 ha         1 2D4       0.115000
     41 H13          3.3980     3.9180     0.1040 ha         1 2D4       0.114000
     42 H4           1.3520     3.6130    -0.5420 ho         1 2D4       0.462000
@<TRIPOS>BOND
     1     1     2 1   
     2     1     5 2   
     3     1    28 1   
     4     2     3 2   
     5     2    29 1   
     6     3     4 1   
     7     3    30 1   
     8     4     5 1   
     9     5     6 1   
    10     6     7 2   
    11     6     8 2   
    12     6     9 1   
    13     9    10 1   
    14     9    31 1   
    15    10    11 ar  
    16    10    12 ar  
    17    11    16 ar  
    18    11    32 1   
    19    12    13 ar  
    20    12    33 1   
    21    13    14 ar  
    22    13    34 1   
    23    14    15 1   
    24    14    16 ar  
    25    15    35 1   
    26    16    17 1   
    27    17    18 ar  
    28    17    26 ar  
    29    18    19 ar  
    30    18    23 ar  
    31    19    20 ar  
    32    19    36 1   
    33    20    21 ar  
    34    20    37 1   
    35    21    22 ar  
    36    21    38 1   
    37    22    23 ar  
    38    22    39 1   
    39    23    24 ar  
    40    24    25 ar  
    41    24    40 1   
    42    25    26 ar  
    43    25    41 1   
    44    26    27 1   
    45    27    42 1   
@<TRIPOS>SUBSTRUCTURE
     1 2D4         1 TEMP              0 ****  ****    0 ROOT
