@<TRIPOS>MOLECULE
2D4
   42    45     1     0     0
SMALL
abcg2


@<TRIPOS>ATOM
      1 C8          -2.3470     1.2240    -0.8260 cc         1 2D4       0.027000
      2 C11         -1.9370     2.5460    -0.5300 cc         1 2D4      -0.156000
      3 C10         -2.3240     2.9460     0.7150 cd         1 2D4      -0.215000
      4 S2          -3.1900     1.7340     1.5500 ss         1 2D4       0.319000
      5 C1          -3.0460     0.6710     0.2080 cd         1 2D4      -0.487500
      6 S1          -3.5590    -0.9890     0.3510 sy         1 2D4       1.182600
      7 O2          -4.5320    -1.0540     1.4250 o          1 2D4      -0.532000
      8 O1          -3.8700    -1.4720    -0.9790 o          1 2D4      -0.532000
      9 N           -2.2340    -1.8460     0.8780 nu         1 2D4      -0.857100
     10 C9          -1.0950    -1.8490     0.0260 ca         1 2D4       0.174000
     11 C6          -0.1040    -0.8830     0.1560 ca         1 2D4      -0.080000
     12 C16         -0.9890    -2.8040    -0.9750 ca         1 2D4      -0.019000
     13 C15          0.0970    -2.7890    -1.8330 ca         1 2D4      -0.209000
     14 C5           1.0840    -1.8150    -1.7030 ca         1 2D4       0.169100
     15 O3           2.1510    -1.7580    -2.5180 oh         1 2D4      -0.517100
     16 C2           0.9890    -0.8510    -0.6960 cp         1 2D4      -0.049000
     17 C3           2.0040     0.2180    -0.5650 cp         1 2D4      -0.069000
     18 C4           3.0480     0.1280     0.3930 ca         1 2D4       0.019000
     19 C17          3.2010    -1.0010     1.2360 ca         1 2D4      -0.107000
     20 C19          4.2170    -1.0630     2.1510 ca         1 2D4      -0.097000
     21 C20          5.1370    -0.0030     2.2790 ca         1 2D4      -0.118000
     22 C18          5.0180     1.0990     1.4780 ca         1 2D4      -0.087000
     23 C12          3.9810     1.1920     0.5210 ca         1 2D4      -0.072000
     24 C14          3.8450     2.3190    -0.3190 ca         1 2D4      -0.051000
     25 C13          2.8420     2.3910    -1.2420 ca         1 2D4      -0.191000
     26 C7           1.9160     1.3310    -1.3710 ca         1 2D4       0.156100
     27 O4           0.9230     1.3830    -2.2770 oh         1 2D4      -0.527100
     28 H8          -2.1250     0.7120    -1.7510 ha         1 2D4       0.157000
     29 H11         -1.3790     3.1710    -1.2110 ha         1 2D4       0.135000
     30 H10         -2.1580     3.9050     1.1820 h4         1 2D4       0.151000
     31 H           -2.0370    -1.6570     1.8560 hn         1 2D4       0.484000
     32 H6          -0.1840    -0.1310     0.9330 ha         1 2D4       0.121000
     33 H16         -1.7500    -3.5650    -1.0810 ha         1 2D4       0.139000
     34 H15          0.1760    -3.5390    -2.6120 ha         1 2D4       0.121000
     35 H3           2.1150    -2.4700    -3.1670 ho         1 2D4       0.465000
     36 H17          2.5030    -1.8250     1.1520 ha         1 2D4       0.120000
     37 H19          4.3160    -1.9360     2.7840 ha         1 2D4       0.113000
     38 H20          5.9340    -0.0660     3.0080 ha         1 2D4       0.114000
     39 H18          5.7210     1.9190     1.5670 ha         1 2D4       0.111000
     40 H14          4.5500     3.1360    -0.2260 ha         1 2D4       0.115000
     41 H13          2.7530     3.2630    -1.8800 ha         1 2D4       0.114000
     42 H4           0.9640     2.2080    -2.7730 ho         1 2D4       0.462000
@<TRIPOS>BOND
     1     1     2 1   
     2     1     5 2   
     3     1    28 1   
     4     2     3 2   
     5     2    29 1   
     6     3     4 1   
     7     3    30 1   
     8     4     5 1   
     9     5     6 1   
    10     6     7 2   
    11     6     8 2   
    12     6     9 1   
    13     9    10 1   
    14     9    31 1   
    15    10    11 ar  
    16    10    12 ar  
    17    11    16 ar  
    18    11    32 1   
    19    12    13 ar  
    20    12    33 1   
    21    13    14 ar  
    22    13    34 1   
    23    14    15 1   
    24    14    16 ar  
    25    15    35 1   
    26    16    17 1   
    27    17    18 ar  
    28    17    26 ar  
    29    18    19 ar  
    30    18    23 ar  
    31    19    20 ar  
    32    19    36 1   
    33    20    21 ar  
    34    20    37 1   
    35    21    22 ar  
    36    21    38 1   
    37    22    23 ar  
    38    22    39 1   
    39    23    24 ar  
    40    24    25 ar  
    41    24    40 1   
    42    25    26 ar  
    43    25    41 1   
    44    26    27 1   
    45    27    42 1   
@<TRIPOS>SUBSTRUCTURE
     1 2D4         1 TEMP              0 ****  ****    0 ROOT
