@<TRIPOS>MOLECULE
2D5
   64    68     1     0     0
SMALL
No Charge or Current Charge


@<TRIPOS>ATOM
      1 N01          8.1300     3.3360     2.3810 nv         1 2D5      -1.065900
      2 C02          8.0110     2.4850     1.3260 ca         1 2D5       0.452900
      3 N03          9.1200     2.2970     0.5940 nb         1 2D5      -0.303000
      4 C04          8.9980     1.4530    -0.4580 ca         1 2D5       0.182900
      5 N05          7.8790     0.7910    -0.8390 nb         1 2D5      -0.222000
      6 C06          6.7820     1.0050    -0.0850 ca         1 2D5       0.119500
      7 C07          6.7980     1.8410     1.0020 ca         1 2D5      -0.099600
      8 N08          5.5590     1.9220     1.6280 nc         1 2D5      -0.557100
      9 C09          4.8090     1.1000     0.8700 cd         1 2D5       0.413700
     10 N10          5.5120     0.5040    -0.1950 na         1 2D5      -0.313300
     11 C11          4.9960    -0.4360    -1.1910 c5         1 2D5       0.321300
     12 O12          3.5530    -0.5190    -1.0490 os         1 2D5      -0.432000
     13 C13          3.1820    -1.8880    -0.7620 c5         1 2D5       0.175300
     14 C14          4.4580    -2.5000    -0.1080 c5         1 2D5       0.091300
     15 O15          4.4790    -3.9390    -0.1220 oh         1 2D5      -0.707000
     16 C16          5.5370    -1.9050    -1.0540 c5         1 2D5       0.103300
     17 O17          5.5600    -2.6350    -2.2930 oh         1 2D5      -0.700000
     18 C18          1.9160    -1.9310     0.1240 c3         1 2D5       0.046600
     19 S19          0.4160    -1.2330    -0.7150 ss         1 2D5      -0.396000
     20 C20         -0.8290    -1.4430     0.6330 c3         1 2D5       0.056600
     21 C21         -2.2060    -0.9250     0.1770 c3         1 2D5      -0.085400
     22 C22         -3.2890    -1.0820     1.2620 c3         1 2D5       0.106000
     23 N23         -4.6000    -0.6080     0.8090 ns         1 2D5      -0.503900
     24 C24         -4.9850     0.7210     0.7530 c          1 2D5       0.607100
     25 C25         -6.4330     1.0370     0.2000 c6         1 2D5       0.091500
     26 N26         -7.2720     1.8570     1.1380 n7         1 2D5      -0.837400
     27 C27         -8.4700     2.4170     0.4710 c6         1 2D5       0.198100
     28 C28         -9.2820     1.3440    -0.2650 ca         1 2D5      -0.116300
     29 C29        -10.6210     1.6070    -0.6140 ca         1 2D5      -0.102000
     30 C30        -11.3780     0.6470    -1.3060 ca         1 2D5      -0.108000
     31 C31        -10.7990    -0.5840    -1.6550 ca         1 2D5      -0.107000
     32 C32         -9.4630    -0.8530    -1.3130 ca         1 2D5      -0.105000
     33 C33         -8.6980     0.1070    -0.6240 ca         1 2D5      -0.076300
     34 C34         -7.2500    -0.2160    -0.2370 c6         1 2D5      -0.065100
     35 O35         -4.2260     1.6120     1.1190 o          1 2D5      -0.604100
     36 H011         8.9120     3.9840     2.3830 hn         1 2D5       0.508000
     37 H012         7.2660     3.6630     2.8070 hn         1 2D5       0.508000
     38 H041         9.8900     1.2890    -1.0590 h5         1 2D5       0.047100
     39 H091         3.7580     0.8890     1.0360 h5         1 2D5       0.075800
     40 H111         5.2640    -0.0190    -2.1710 h2         1 2D5       0.127700
     41 H131         2.9560    -2.3930    -1.7110 h1         1 2D5       0.094700
     42 H141         4.5820    -2.1170     0.9160 h1         1 2D5       0.057700
     43 H151         4.9630    -4.2400     0.6860 ho         1 2D5       0.519000
     44 H161         6.5310    -1.9170    -0.5830 h1         1 2D5       0.081700
     45 H171         5.2640    -3.5450    -2.0390 ho         1 2D5       0.525000
     46 H181         1.7100    -2.9740     0.3960 h1         1 2D5       0.067200
     47 H182         2.1040    -1.3690     1.0480 h1         1 2D5       0.067200
     48 H201        -0.8990    -2.5070     0.8960 h1         1 2D5       0.060700
     49 H202        -0.4970    -0.8860     1.5200 h1         1 2D5       0.060700
     50 H211        -2.1170     0.1320    -0.1000 hc         1 2D5       0.058700
     51 H212        -2.5150    -1.4710    -0.7220 hc         1 2D5       0.058700
     52 H221        -3.3800    -2.1420     1.5370 h1         1 2D5       0.053700
     53 H222        -2.9970    -0.5250     2.1630 h1         1 2D5       0.053700
     54 H231        -5.2750    -1.2950     0.4960 hn         1 2D5       0.315500
     55 H251        -6.2450     1.6350    -0.7040 h1         1 2D5       0.065700
     56 H261        -7.5840     1.2540     1.9100 hn         1 2D5       0.432000
     57 H271        -9.1080     2.9160     1.2180 h1         1 2D5       0.062200
     58 H272        -8.1610     3.1830    -0.2560 h1         1 2D5       0.062200
     59 H291       -11.0760     2.5600    -0.3500 ha         1 2D5       0.112000
     60 H301       -12.4120     0.8560    -1.5710 ha         1 2D5       0.114000
     61 H311       -11.3850    -1.3290    -2.1890 ha         1 2D5       0.114000
     62 H321        -9.0230    -1.8110    -1.5830 ha         1 2D5       0.111000
     63 H341        -6.7450    -0.7070    -1.0810 hc         1 2D5       0.063700
     64 H342        -7.2780    -0.9480     0.5820 hc         1 2D5       0.063700
@<TRIPOS>BOND
     1     1     2 1   
     2     1    36 1   
     3     1    37 1   
     4     2     3 ar  
     5     2     7 ar  
     6     3     4 ar  
     7     4     5 ar  
     8     4    38 1   
     9     5     6 ar  
    10     6     7 ar  
    11     6    10 1   
    12     7     8 1   
    13     8     9 2   
    14     9    10 1   
    15     9    39 1   
    16    10    11 1   
    17    11    12 1   
    18    11    16 1   
    19    11    40 1   
    20    12    13 1   
    21    13    14 1   
    22    13    18 1   
    23    13    41 1   
    24    14    15 1   
    25    14    16 1   
    26    14    42 1   
    27    15    43 1   
    28    16    17 1   
    29    16    44 1   
    30    17    45 1   
    31    18    19 1   
    32    18    46 1   
    33    18    47 1   
    34    19    20 1   
    35    20    21 1   
    36    20    48 1   
    37    20    49 1   
    38    21    22 1   
    39    21    50 1   
    40    21    51 1   
    41    22    23 1   
    42    22    52 1   
    43    22    53 1   
    44    23    24 1   
    45    23    54 1   
    46    24    25 1   
    47    24    35 2   
    48    25    26 1   
    49    25    34 1   
    50    25    55 1   
    51    26    27 1   
    52    26    56 1   
    53    27    28 1   
    54    27    57 1   
    55    27    58 1   
    56    28    29 ar  
    57    28    33 ar  
    58    29    30 ar  
    59    29    59 1   
    60    30    31 ar  
    61    30    60 1   
    62    31    32 ar  
    63    31    61 1   
    64    32    33 ar  
    65    32    62 1   
    66    33    34 1   
    67    34    63 1   
    68    34    64 1   
@<TRIPOS>SUBSTRUCTURE
     1 2D5         1 TEMP              0 ****  ****    0 ROOT
