@<TRIPOS>MOLECULE
2D5
   64    68     1     0     0
SMALL
bcc


@<TRIPOS>ATOM
      1 N01          7.8630     3.5580     1.8210 nv         1 2D5      -0.955500
      2 C02          7.7770     2.5820     0.9170 ca         1 2D5       0.781200
      3 N03          8.8550     2.2620     0.1940 nb         1 2D5      -0.829000
      4 C04          8.7670     1.2880    -0.7080 ca         1 2D5       0.708900
      5 N05          7.7190     0.5440    -1.0150 nb         1 2D5      -0.748000
      6 C06          6.6540     0.8760    -0.2870 ca         1 2D5       0.447800
      7 C07          6.5900     1.8630     0.6840 ca         1 2D5      -0.230200
      8 N08          5.3310     1.9360     1.2190 nc         1 2D5      -0.557100
      9 C09          4.6560     1.0190     0.5870 cd         1 2D5       0.413700
     10 N10          5.4020     0.3350    -0.3330 na         1 2D5      -0.284000
     11 C11          4.9800    -0.7230    -1.2460 c5         1 2D5       0.268800
     12 O12          3.5900    -0.8240    -1.2100 os         1 2D5      -0.385600
     13 C13          3.1720    -2.0270    -0.5670 c5         1 2D5       0.152100
     14 C14          4.4250    -2.5670     0.1200 c5         1 2D5       0.068100
     15 O15          4.3470    -3.9580     0.2390 oh         1 2D5      -0.584800
     16 C16          5.5310    -2.0840    -0.8250 c5         1 2D5       0.080100
     17 O17          5.6010    -2.8830    -1.9720 oh         1 2D5      -0.577800
     18 C18          2.0290    -1.7480     0.3820 c3         1 2D5      -0.001300
     19 S19          0.6650    -0.9480    -0.5040 ss         1 2D5      -0.300200
     20 C20         -0.6320    -1.0560     0.7600 c3         1 2D5       0.008700
     21 C21         -1.9200    -0.4650     0.2070 c3         1 2D5      -0.085400
     22 C22         -3.0290    -0.4950     1.2490 c3         1 2D5       0.106000
     23 N23         -4.2420     0.0750     0.7000 ns         1 2D5      -0.570900
     24 C24         -5.4360    -0.0360     1.2910 c          1 2D5       0.674100
     25 C25         -6.6020     0.5810     0.5360 c6         1 2D5       0.091500
     26 N26         -7.4080     1.3570     1.4580 n7         1 2D5      -0.782200
     27 C27         -8.4720     2.0550     0.7660 c6         1 2D5       0.198100
     28 C28         -9.2320     1.2240    -0.2430 ca         1 2D5      -0.116300
     29 C29        -10.4440     1.6850    -0.7550 ca         1 2D5      -0.120000
     30 C30        -11.1440     0.9540    -1.7000 ca         1 2D5      -0.126000
     31 C31        -10.6310    -0.2580    -2.1500 ca         1 2D5      -0.125000
     32 C32         -9.4250    -0.7190    -1.6480 ca         1 2D5      -0.123000
     33 C33         -8.7150     0.0100    -0.6950 ca         1 2D5      -0.076300
     34 C34         -7.4120    -0.5200    -0.1550 c6         1 2D5      -0.065100
     35 O35         -5.6070    -0.6250     2.3510 o          1 2D5      -0.604100
     36 H011         8.7250     4.0610     1.9460 hn         1 2D5       0.452800
     37 H012         7.0690     3.8250     2.3770 hn         1 2D5       0.452800
     38 H041         9.6780     1.0810    -1.2610 h5         1 2D5       0.047100
     39 H091         3.6100     0.8110     0.7450 h5         1 2D5       0.075800
     40 H111         5.3190    -0.4440    -2.2470 h2         1 2D5       0.127700
     41 H131         2.8370    -2.7380    -1.3320 h1         1 2D5       0.094700
     42 H141         4.5530    -2.0870     1.0990 h1         1 2D5       0.057700
     43 H151         4.9690    -4.2480     0.9140 ho         1 2D5       0.420000
     44 H161         6.5040    -1.9980    -0.3260 h1         1 2D5       0.081700
     45 H171         5.4660    -3.8000    -1.7030 ho         1 2D5       0.426000
     46 H181         1.6840    -2.7010     0.7890 h1         1 2D5       0.067200
     47 H182         2.3530    -1.1250     1.2180 h1         1 2D5       0.067200
     48 H201        -0.7780    -2.1020     1.0360 h1         1 2D5       0.060700
     49 H202        -0.3120    -0.5120     1.6510 h1         1 2D5       0.060700
     50 H211        -1.7430     0.5670    -0.1070 hc         1 2D5       0.058700
     51 H212        -2.2350    -1.0240    -0.6770 hc         1 2D5       0.058700
     52 H221        -3.2240    -1.5230     1.5590 h1         1 2D5       0.053700
     53 H222        -2.7170     0.0560     2.1420 h1         1 2D5       0.053700
     54 H231        -4.1650     0.6350    -0.1340 hn         1 2D5       0.315500
     55 H251        -6.2230     1.2690    -0.2280 h1         1 2D5       0.065700
     56 H261        -7.8050     0.7350     2.1540 hn         1 2D5       0.376800
     57 H271        -9.1610     2.4590     1.5110 h1         1 2D5       0.062200
     58 H272        -8.0450     2.9230     0.2520 h1         1 2D5       0.062200
     59 H291       -10.8420     2.6310    -0.4050 ha         1 2D5       0.130000
     60 H301       -12.0870     1.3230    -2.0840 ha         1 2D5       0.132000
     61 H311       -11.1680    -0.8380    -2.8890 ha         1 2D5       0.132000
     62 H321        -9.0210    -1.6620    -2.0000 ha         1 2D5       0.129000
     63 H341        -6.8300    -0.9750    -0.9610 hc         1 2D5       0.063700
     64 H342        -7.6140    -1.3170     0.5680 hc         1 2D5       0.063700
@<TRIPOS>BOND
     1     1     2 1   
     2     1    36 1   
     3     1    37 1   
     4     2     3 ar  
     5     2     7 ar  
     6     3     4 ar  
     7     4     5 ar  
     8     4    38 1   
     9     5     6 ar  
    10     6     7 ar  
    11     6    10 1   
    12     7     8 1   
    13     8     9 2   
    14     9    10 1   
    15     9    39 1   
    16    10    11 1   
    17    11    12 1   
    18    11    16 1   
    19    11    40 1   
    20    12    13 1   
    21    13    14 1   
    22    13    18 1   
    23    13    41 1   
    24    14    15 1   
    25    14    16 1   
    26    14    42 1   
    27    15    43 1   
    28    16    17 1   
    29    16    44 1   
    30    17    45 1   
    31    18    19 1   
    32    18    46 1   
    33    18    47 1   
    34    19    20 1   
    35    20    21 1   
    36    20    48 1   
    37    20    49 1   
    38    21    22 1   
    39    21    50 1   
    40    21    51 1   
    41    22    23 1   
    42    22    52 1   
    43    22    53 1   
    44    23    24 1   
    45    23    54 1   
    46    24    25 1   
    47    24    35 2   
    48    25    26 1   
    49    25    34 1   
    50    25    55 1   
    51    26    27 1   
    52    26    56 1   
    53    27    28 1   
    54    27    57 1   
    55    27    58 1   
    56    28    29 ar  
    57    28    33 ar  
    58    29    30 ar  
    59    29    59 1   
    60    30    31 ar  
    61    30    60 1   
    62    31    32 ar  
    63    31    61 1   
    64    32    33 ar  
    65    32    62 1   
    66    33    34 1   
    67    34    63 1   
    68    34    64 1   
@<TRIPOS>SUBSTRUCTURE
     1 2D5         1 TEMP              0 ****  ****    0 ROOT
