@<TRIPOS>MOLECULE
2D6
   56    59     1     0     0
SMALL
No Charge or Current Charge


@<TRIPOS>ATOM
      1 N4          -0.5150     0.5780     0.5810 ns         1 2D6      -0.508900
      2 C8           0.3600    -0.1900     1.3150 c          1 2D6       0.604100
      3 O2           0.1810    -1.3830     1.5060 o          1 2D6      -0.590100
      4 C9           1.5540     0.5620     1.8970 c3         1 2D6      -0.160400
      5 C10          2.8470     0.1890     1.1480 c3         1 2D6       0.082600
      6 S1           4.2880     1.1070     1.8680 ss         1 2D6      -0.284200
      7 C11          5.6590     0.5700     0.9020 cc         1 2D6       0.531800
      8 N2           6.9060     1.0550     1.1730 ns         1 2D6      -0.422400
      9 C12          8.0260     0.7150     0.5000 c          1 2D6       0.581600
     10 O3           9.1190     1.1810     0.7850 o          1 2D6      -0.530000
     11 N3           5.3730    -0.3030    -0.0600 nd         1 2D6      -0.644100
     12 C13          6.4820    -0.7170    -0.8180 ca         1 2D6       0.193400
     13 C14          7.7950    -0.2590    -0.5950 ca         1 2D6      -0.203600
     14 C15          8.8610    -0.7200    -1.3980 ca         1 2D6      -0.040000
     15 C16          8.6150    -1.6420    -2.4280 ca         1 2D6      -0.133000
     16 C17          7.3100    -2.1030    -2.6570 ca         1 2D6      -0.073000
     17 C18          6.2530    -1.6410    -1.8540 ca         1 2D6      -0.105000
     18 C19         -3.4580     0.5710    -1.9000 c6         1 2D6      -0.089400
     19 C20         -2.1360     1.0270    -1.2310 c6         1 2D6      -0.089400
     20 C21         -1.7460     0.0960    -0.0550 c6         1 2D6       0.110700
     21 C22         -2.9060     0.0420     0.9730 c6         1 2D6      -0.089400
     22 C23         -4.2310    -0.4150     0.3110 c6         1 2D6      -0.089400
     23 C24         -4.6190     0.5100    -0.8770 c6         1 2D6       0.176300
     24 O1          -5.8060     0.0290    -1.5420 os         1 2D6      -0.346100
     25 C1          -7.0580     0.0950    -0.9590 ca         1 2D6       0.178100
     26 C2          -7.3370     0.8520     0.2010 ca         1 2D6      -0.184500
     27 C3          -8.6400     0.8770     0.7320 ca         1 2D6      -0.032000
     28 C4          -9.6740     0.1530     0.1080 ca         1 2D6      -0.064000
     29 C5          -9.3990    -0.5940    -1.0530 ca         1 2D6      -0.032000
     30 C6          -8.0960    -0.6170    -1.5810 ca         1 2D6      -0.184500
     31 C7         -11.0040     0.1800     0.6510 cg         1 2D6       0.331000
     32 N1         -12.0840     0.2110     1.0940 n1         1 2D6      -0.460000
     33 H1          -0.2840     1.5600     0.4880 hn         1 2D6       0.309500
     34 H2           1.4010     1.6450     1.8150 hc         1 2D6       0.068200
     35 H3           1.6700     0.2800     2.9500 hc         1 2D6       0.068200
     36 H4           3.0280    -0.8910     1.2290 h1         1 2D6       0.098200
     37 H5           2.7500     0.4450     0.0840 h1         1 2D6       0.098200
     38 H6           7.0190     1.7150     1.9260 hn         1 2D6       0.338500
     39 H7           9.8760    -0.3660    -1.2260 ha         1 2D6       0.135000
     40 H8           9.4360    -1.9980    -3.0470 ha         1 2D6       0.120000
     41 H9           7.1160    -2.8180    -3.4540 ha         1 2D6       0.118000
     42 H10          5.2450    -2.0020    -2.0370 ha         1 2D6       0.134000
     43 H12         -3.3180    -0.4160    -2.3630 hc         1 2D6       0.061200
     44 H13         -1.3300     1.0380    -1.9790 hc         1 2D6       0.050200
     45 H14         -2.2420     2.0610    -0.8730 hc         1 2D6       0.050200
     46 H15         -1.5650    -0.9170    -0.4490 h1         1 2D6       0.082700
     47 H16         -2.6490    -0.6470     1.7900 hc         1 2D6       0.050200
     48 H17         -3.0450     1.0310     1.4330 hc         1 2D6       0.050200
     49 H18         -4.1280    -1.4490    -0.0450 hc         1 2D6       0.061200
     50 H19         -5.0280    -0.4270     1.0660 hc         1 2D6       0.061200
     51 H20         -4.7960     1.5330    -0.5150 h1         1 2D6       0.044700
     52 H21         -6.5670     1.4290     0.7020 ha         1 2D6       0.128000
     53 H22         -8.8440     1.4620     1.6270 ha         1 2D6       0.125000
     54 H23        -10.1910    -1.1550    -1.5460 ha         1 2D6       0.125000
     55 H24         -7.8880    -1.1940    -2.4780 ha         1 2D6       0.128000
     56 H11         -3.7190     1.2640    -2.7120 hc         1 2D6       0.061200
@<TRIPOS>BOND
     1     1     2 1   
     2     1    20 1   
     3     1    33 1   
     4     2     3 2   
     5     2     4 1   
     6     4     5 1   
     7     4    34 1   
     8     4    35 1   
     9     5     6 1   
    10     5    36 1   
    11     5    37 1   
    12     6     7 1   
    13     7     8 1   
    14     7    11 2   
    15     8     9 1   
    16     8    38 1   
    17     9    10 2   
    18     9    13 1   
    19    11    12 1   
    20    12    13 ar  
    21    12    17 ar  
    22    13    14 ar  
    23    14    15 ar  
    24    14    39 1   
    25    15    16 ar  
    26    15    40 1   
    27    16    17 ar  
    28    16    41 1   
    29    17    42 1   
    30    18    19 1   
    31    18    23 1   
    32    18    43 1   
    33    18    56 1   
    34    19    20 1   
    35    19    44 1   
    36    19    45 1   
    37    20    21 1   
    38    20    46 1   
    39    21    22 1   
    40    21    47 1   
    41    21    48 1   
    42    22    23 1   
    43    22    49 1   
    44    22    50 1   
    45    23    24 1   
    46    23    51 1   
    47    24    25 1   
    48    25    26 ar  
    49    25    30 ar  
    50    26    27 ar  
    51    26    52 1   
    52    27    28 ar  
    53    27    53 1   
    54    28    29 ar  
    55    28    31 1   
    56    29    30 ar  
    57    29    54 1   
    58    30    55 1   
    59    31    32 3   
@<TRIPOS>SUBSTRUCTURE
     1 2D6         1 TEMP              0 ****  ****    0 ROOT
