@<TRIPOS>MOLECULE
2D6
   56    59     1     0     0
SMALL
abcg2


@<TRIPOS>ATOM
      1 N4          -0.6880     1.2750    -0.1850 ns         1 2D6      -0.508900
      2 C8           0.4280     0.5290    -0.1030 c          1 2D6       0.604100
      3 O2           0.5040    -0.6120    -0.5270 o          1 2D6      -0.590100
      4 C9           1.5950     1.2180     0.5820 c3         1 2D6      -0.160400
      5 C10          2.9220     0.6340     0.1270 c3         1 2D6       0.082600
      6 S1           4.2380     1.5000     1.0260 ss         1 2D6      -0.284200
      7 C11          5.6370     0.5590     0.5630 cc         1 2D6       0.531800
      8 N2           6.8040     0.9870     1.1250 ns         1 2D6      -0.422400
      9 C12          8.0300     0.3900     0.9030 c          1 2D6       0.581600
     10 O3           9.0370     0.8170     1.4300 o          1 2D6      -0.530000
     11 N3           5.5510    -0.4400    -0.2330 nd         1 2D6      -0.644100
     12 C13          6.7090    -1.1210    -0.5290 ca         1 2D6       0.193400
     13 C14          7.9550    -0.7560     0.0040 ca         1 2D6      -0.203600
     14 C15          9.1040    -1.4790    -0.3220 ca         1 2D6      -0.040000
     15 C16          9.0200    -2.5590    -1.1730 ca         1 2D6      -0.133000
     16 C17          7.7810    -2.9250    -1.7090 ca         1 2D6      -0.073000
     17 C18          6.6400    -2.2200    -1.3950 ca         1 2D6      -0.105000
     18 C19         -4.0920     1.4770    -1.8340 c6         1 2D6      -0.089400
     19 C20         -2.7420     1.9440    -1.3010 c6         1 2D6      -0.089400
     20 C21         -1.9510     0.7880    -0.6980 c6         1 2D6       0.110700
     21 C22         -2.7690     0.0720     0.3770 c6         1 2D6      -0.089400
     22 C23         -4.1160    -0.3920    -0.1660 c6         1 2D6      -0.089400
     23 C24         -4.8920     0.7850    -0.7430 c6         1 2D6       0.176300
     24 O1          -6.1200     0.3660    -1.3340 os         1 2D6      -0.346100
     25 C1          -7.1870     0.0750    -0.5810 ca         1 2D6       0.178100
     26 C2          -7.2470     0.2030     0.8080 ca         1 2D6      -0.184500
     27 C3          -8.4130    -0.1170     1.4810 ca         1 2D6      -0.032000
     28 C4          -9.5340    -0.5690     0.7900 ca         1 2D6      -0.064000
     29 C5          -9.4730    -0.6950    -0.6000 ca         1 2D6      -0.032000
     30 C6          -8.3150    -0.3780    -1.2750 ca         1 2D6      -0.184500
     31 C7         -10.7260    -0.9010     1.4980 cg         1 2D6       0.331000
     32 N1         -11.6850    -1.1710     2.0780 n1         1 2D6      -0.460000
     33 H1          -0.6770     2.1920     0.2310 hn         1 2D6       0.309500
     34 H2           1.5610     2.2930     0.3940 hc         1 2D6       0.068200
     35 H3           1.4720     1.0860     1.6610 hc         1 2D6       0.068200
     36 H4           2.9860    -0.4270     0.3510 h1         1 2D6       0.098200
     37 H5           3.0710     0.7740    -0.9420 h1         1 2D6       0.098200
     38 H6           6.8030     1.7860     1.7460 hn         1 2D6       0.338500
     39 H7          10.0570    -1.1860     0.0980 ha         1 2D6       0.135000
     40 H8           9.9070    -3.1220    -1.4260 ha         1 2D6       0.120000
     41 H9           7.7170    -3.7730    -2.3770 ha         1 2D6       0.118000
     42 H10          5.6800    -2.5000    -1.8060 ha         1 2D6       0.134000
     43 H12         -3.9400     0.7840    -2.6670 hc         1 2D6       0.061200
     44 H13         -2.1700     2.4100    -2.1050 hc         1 2D6       0.050200
     45 H14         -2.9010     2.7180    -0.5410 hc         1 2D6       0.050200
     46 H15         -1.7260     0.0750    -1.4950 h1         1 2D6       0.082700
     47 H16         -2.2120    -0.7840     0.7590 hc         1 2D6       0.050200
     48 H17         -2.9210     0.7500     1.2240 hc         1 2D6       0.050200
     49 H18         -3.9630    -1.1340    -0.9560 hc         1 2D6       0.061200
     50 H19         -4.6770    -0.8930     0.6250 hc         1 2D6       0.061200
     51 H20         -5.0940     1.5200     0.0480 h1         1 2D6       0.044700
     52 H21         -6.4050     0.5510     1.3880 ha         1 2D6       0.128000
     53 H22         -8.4440    -0.0150     2.5570 ha         1 2D6       0.125000
     54 H23        -10.3370    -1.0420    -1.1510 ha         1 2D6       0.125000
     55 H24         -8.2720    -0.4760    -2.3510 ha         1 2D6       0.128000
     56 H11         -4.6510     2.3300    -2.2230 hc         1 2D6       0.061200
@<TRIPOS>BOND
     1     1     2 1   
     2     1    20 1   
     3     1    33 1   
     4     2     3 2   
     5     2     4 1   
     6     4     5 1   
     7     4    34 1   
     8     4    35 1   
     9     5     6 1   
    10     5    36 1   
    11     5    37 1   
    12     6     7 1   
    13     7     8 1   
    14     7    11 2   
    15     8     9 1   
    16     8    38 1   
    17     9    10 2   
    18     9    13 1   
    19    11    12 1   
    20    12    13 ar  
    21    12    17 ar  
    22    13    14 ar  
    23    14    15 ar  
    24    14    39 1   
    25    15    16 ar  
    26    15    40 1   
    27    16    17 ar  
    28    16    41 1   
    29    17    42 1   
    30    18    19 1   
    31    18    23 1   
    32    18    43 1   
    33    18    56 1   
    34    19    20 1   
    35    19    44 1   
    36    19    45 1   
    37    20    21 1   
    38    20    46 1   
    39    21    22 1   
    40    21    47 1   
    41    21    48 1   
    42    22    23 1   
    43    22    49 1   
    44    22    50 1   
    45    23    24 1   
    46    23    51 1   
    47    24    25 1   
    48    25    26 ar  
    49    25    30 ar  
    50    26    27 ar  
    51    26    52 1   
    52    27    28 ar  
    53    27    53 1   
    54    28    29 ar  
    55    28    31 1   
    56    29    30 ar  
    57    29    54 1   
    58    30    55 1   
    59    31    32 3   
@<TRIPOS>SUBSTRUCTURE
     1 2D6         1 TEMP              0 ****  ****    0 ROOT
