@<TRIPOS>MOLECULE
2D7
   40    42     1     0     0
SMALL
No Charge or Current Charge


@<TRIPOS>ATOM
      1 O6           7.2600     2.3600    -0.1610 o          1 2D7      -0.525100
      2 C17          7.0950     1.1470    -0.1100 c          1 2D7       0.586700
      3 C18          8.3140     0.2210    -0.1160 c3         1 2D7      -0.195100
      4 C14          5.7010     0.5540    -0.0400 ca         1 2D7      -0.203600
      5 C15          4.5760     1.4080    -0.0340 ca         1 2D7      -0.036000
      6 C16          3.2730     0.8850     0.0300 ca         1 2D7      -0.163000
      7 C13          5.4850    -0.8420     0.0220 ca         1 2D7      -0.036000
      8 C12          4.1800    -1.3590     0.0860 ca         1 2D7      -0.163000
      9 C11          3.0610    -0.5080     0.0860 ca         1 2D7       0.004000
     10 N3           1.7750    -1.1100     0.1560 ns         1 2D7      -0.125000
     11 C10          0.4900    -0.5890     0.0630 c          1 2D7       0.677700
     12 O5           0.2540     0.5940    -0.1380 o          1 2D7      -0.621100
     13 C8          -0.5820    -1.5990     0.2260 cc         1 2D7      -0.311600
     14 C9          -0.3280    -2.9390     0.5660 cc         1 2D7       0.269900
     15 N1          -1.4030    -3.6640     0.7570 nd         1 2D7      -0.504800
     16 N2          -2.4200    -2.7410     0.5370 na         1 2D7       0.007800
     17 C7          -1.9560    -1.4540     0.2060 cd         1 2D7       0.018000
     18 C5          -2.8910    -0.3650    -0.2030 ca         1 2D7      -0.185000
     19 C6          -4.1580    -0.3410     0.4330 ca         1 2D7      -0.017000
     20 C1          -5.1310     0.6120     0.0950 ca         1 2D7      -0.027000
     21 Cl1         -6.6800     0.6050     0.9400 cl         1 2D7      -0.201000
     22 C2          -4.8680     1.5550    -0.9110 ca         1 2D7       0.209100
     23 O2          -5.8040     2.4840    -1.2620 oh         1 2D7      -0.516100
     24 C3          -3.6380     1.5330    -1.5720 ca         1 2D7      -0.199000
     25 C4          -2.6580     0.5930    -1.2270 ca         1 2D7       0.252100
     26 O4          -1.5230     0.5920    -1.9660 oh         1 2D7      -0.570100
     27 H181         9.2600     0.7720    -0.1700 hc         1 2D7       0.061033
     28 H182         8.2770    -0.4250     0.7680 hc         1 2D7       0.061033
     29 H183         8.2190    -0.4910    -0.9420 hc         1 2D7       0.061033
     30 H15          4.7050     2.4880    -0.0760 ha         1 2D7       0.126500
     31 H16          2.4440     1.5850     0.0410 ha         1 2D7       0.132500
     32 H13          6.3170    -1.5420     0.0220 ha         1 2D7       0.126500
     33 H12          4.0420    -2.4370     0.1330 ha         1 2D7       0.132500
     34 H3           1.8050    -2.1090     0.3020 hn         1 2D7       0.159000
     35 H9           0.6330    -3.4190     0.7010 h4         1 2D7       0.041100
     36 H2          -3.3970    -3.0210     0.5850 hn         1 2D7       0.382000
     37 H6          -4.3900    -1.0520     1.2230 ha         1 2D7       0.126000
     38 HA          -6.5920     2.3350    -0.6950 ho         1 2D7       0.483000
     39 HB          -3.4440     2.2480    -2.3660 ha         1 2D7       0.154000
     40 H4          -0.7780     0.6190    -1.3060 ho         1 2D7       0.527000
@<TRIPOS>BOND
     1     1     2 2   
     2     2     3 1   
     3     2     4 1   
     4     3    27 1   
     5     3    28 1   
     6     3    29 1   
     7     4     5 ar  
     8     4     7 ar  
     9     5     6 ar  
    10     5    30 1   
    11     6     9 ar  
    12     6    31 1   
    13     7     8 ar  
    14     7    32 1   
    15     8     9 ar  
    16     8    33 1   
    17     9    10 1   
    18    10    11 1   
    19    10    34 1   
    20    11    12 2   
    21    11    13 1   
    22    13    14 1   
    23    13    17 2   
    24    14    15 2   
    25    14    35 1   
    26    15    16 1   
    27    16    17 1   
    28    16    36 1   
    29    17    18 1   
    30    18    19 ar  
    31    18    25 ar  
    32    19    20 ar  
    33    19    37 1   
    34    20    21 1   
    35    20    22 ar  
    36    22    23 1   
    37    22    24 ar  
    38    23    38 1   
    39    24    25 ar  
    40    24    39 1   
    41    25    26 1   
    42    26    40 1   
@<TRIPOS>SUBSTRUCTURE
     1 2D7         1 TEMP              0 ****  ****    0 ROOT
