@<TRIPOS>MOLECULE
2D7
   40    42     1     0     0
SMALL
bcc


@<TRIPOS>ATOM
      1 O6           7.0620     2.2150    -0.7360 o          1 2D7      -0.525100
      2 C17          6.8730     1.1940    -0.1050 c          1 2D7       0.586700
      3 C18          7.9790     0.5470     0.6840 c3         1 2D7      -0.195100
      4 C14          5.5350     0.5500    -0.0940 ca         1 2D7      -0.203600
      5 C15          4.4950     1.1100    -0.8350 ca         1 2D7      -0.054000
      6 C16          3.2290     0.5520    -0.8540 ca         1 2D7      -0.181000
      7 C13          5.2700    -0.6080     0.6370 ca         1 2D7      -0.054000
      8 C12          4.0130    -1.1760     0.6290 ca         1 2D7      -0.181000
      9 C11          2.9760    -0.6050    -0.1120 ca         1 2D7       0.096600
     10 N3           1.7470    -1.2620    -0.0590 ns         1 2D7      -0.451100
     11 C10          0.5480    -0.8900    -0.5600 c          1 2D7       0.744700
     12 O5           0.3650     0.1840    -1.1340 o          1 2D7      -0.621100
     13 C8          -0.5270    -1.8580    -0.3700 cc         1 2D7      -0.376900
     14 C9          -0.4210    -3.2560    -0.2070 cc         1 2D7       0.335200
     15 N1          -1.5990    -3.8070    -0.0400 nd         1 2D7      -0.504800
     16 N2          -2.4580    -2.7940    -0.0810 na         1 2D7       0.007400
     17 C7          -1.8920    -1.5940    -0.2810 cd         1 2D7       0.068700
     18 C5          -2.7260    -0.3890    -0.2690 ca         1 2D7      -0.185000
     19 C6          -3.6370    -0.2310     0.7740 ca         1 2D7      -0.035000
     20 C1          -4.5450     0.8050     0.7790 ca         1 2D7      -0.118600
     21 CL1         -5.6600     0.9860     2.0950 cl         1 2D7      -0.109400
     22 C2          -4.5840     1.7230    -0.2750 ca         1 2D7       0.209100
     23 O2          -5.4490     2.7380    -0.3330 oh         1 2D7      -0.477100
     24 C3          -3.6660     1.5830    -1.3070 ca         1 2D7      -0.217000
     25 C4          -2.7360     0.5500    -1.3170 ca         1 2D7       0.252100
     26 O4          -1.9030     0.4640    -2.3610 oh         1 2D7      -0.531100
     27 H181         8.9070     1.1000     0.5580 hc         1 2D7       0.061033
     28 H182         7.7300     0.5190     1.7460 hc         1 2D7       0.061033
     29 H183         8.1370    -0.4840     0.3650 hc         1 2D7       0.061033
     30 H15          4.6720     2.0050    -1.4150 ha         1 2D7       0.144500
     31 H16          2.4600     1.0200    -1.4440 ha         1 2D7       0.150500
     32 H13          6.0420    -1.0820     1.2280 ha         1 2D7       0.144500
     33 H12          3.8330    -2.0760     1.2050 ha         1 2D7       0.150500
     34 H3           1.7510    -2.1080     0.4920 hn         1 2D7       0.325500
     35 H9           0.4690    -3.8690    -0.2300 h4         1 2D7       0.041100
     36 H2          -3.4470    -2.9770     0.0100 hn         1 2D7       0.331700
     37 H6          -3.6330    -0.9280     1.6020 ha         1 2D7       0.144000
     38 HA          -6.0240     2.7520     0.4440 ho         1 2D7       0.444000
     39 HB          -3.6720     2.2970    -2.1220 ha         1 2D7       0.172000
     40 H4          -0.9890     0.2800    -2.0260 ho         1 2D7       0.488000
@<TRIPOS>BOND
     1     1     2 2   
     2     2     3 1   
     3     2     4 1   
     4     3    27 1   
     5     3    28 1   
     6     3    29 1   
     7     4     5 ar  
     8     4     7 ar  
     9     5     6 ar  
    10     5    30 1   
    11     6     9 ar  
    12     6    31 1   
    13     7     8 ar  
    14     7    32 1   
    15     8     9 ar  
    16     8    33 1   
    17     9    10 1   
    18    10    11 1   
    19    10    34 1   
    20    11    12 2   
    21    11    13 1   
    22    13    14 1   
    23    13    17 2   
    24    14    15 2   
    25    14    35 1   
    26    15    16 1   
    27    16    17 1   
    28    16    36 1   
    29    17    18 1   
    30    18    19 ar  
    31    18    25 ar  
    32    19    20 ar  
    33    19    37 1   
    34    20    21 1   
    35    20    22 ar  
    36    22    23 1   
    37    22    24 ar  
    38    23    38 1   
    39    24    25 ar  
    40    24    39 1   
    41    25    26 1   
    42    26    40 1   
@<TRIPOS>SUBSTRUCTURE
     1 2D7         1 TEMP              0 ****  ****    0 ROOT
