@<TRIPOS>MOLECULE
2D8
   24    23     1     0     0
SMALL
bcc


@<TRIPOS>ATOM
      1 C4           0.3470    -0.4760    -0.1160 c3         1 2D8      -0.249600
      2 C5           1.6300     0.3420     0.0120 c3         1 2D8      -0.147700
      3 C6           2.9040    -0.5220     0.1800 c          1 2D8       0.925600
      4 C7           1.8160     1.2940    -1.1710 c3         1 2D8      -0.066100
      5 N1          -2.5870    -1.6220    -1.0160 n8         1 2D8      -0.895800
      6 P           -1.1980     0.4930     0.1420 p5         1 2D8       1.035400
      7 C1          -3.8470    -0.2250     0.5410 c3         1 2D8      -0.047100
      8 C2          -2.4910    -0.8380     0.2190 c3         1 2D8      -0.033700
      9 O31         -1.1120     1.1770     1.4980 o          1 2D8      -0.832500
     10 O32         -1.5140     1.3470    -1.0780 o          1 2D8      -0.832500
     11 O61          3.9660     0.1100     0.3720 o          1 2D8      -0.874300
     12 O62          2.7980    -1.7620     0.1100 o          1 2D8      -0.874300
     13 H1           0.3200    -0.9740    -1.0910 hc         1 2D8       0.035700
     14 H2           0.3520    -1.2760     0.6300 hc         1 2D8       0.035700
     15 H3           1.5500     0.9570     0.9170 hc         1 2D8       0.043700
     16 H4           0.9700     1.9720    -1.2740 hc         1 2D8       0.011367
     17 H5           2.7200     1.8900    -1.0590 hc         1 2D8       0.011367
     18 H6           1.8970     0.7360    -2.1080 hc         1 2D8       0.011367
     19 H10         -4.6210    -0.9930     0.5900 hc         1 2D8       0.014033
     20 H11         -3.8260     0.2990     1.4960 hc         1 2D8       0.014033
     21 H12         -4.1400     0.4970    -0.2250 hc         1 2D8       0.014033
     22 H13         -2.2280    -1.5310     1.0260 h1         1 2D8       0.045700
     23 H7          -2.6690    -0.9790    -1.7960 hn         1 2D8       0.326800
     24 H8          -1.7170    -2.1170    -1.1700 hn         1 2D8       0.326800
@<TRIPOS>BOND
     1     1     2 1   
     2     1     6 1   
     3     1    13 1   
     4     1    14 1   
     5     2     3 1   
     6     2     4 1   
     7     2    15 1   
     8     3    11 1   
     9     3    12 1   
    10     4    16 1   
    11     4    17 1   
    12     4    18 1   
    13     5     8 1   
    14     5    23 1   
    15     5    24 1   
    16     6     8 1   
    17     6     9 1   
    18     6    10 1   
    19     7     8 1   
    20     7    19 1   
    21     7    20 1   
    22     7    21 1   
    23     8    22 1   
@<TRIPOS>SUBSTRUCTURE
     1 2D8         1 TEMP              0 ****  ****    0 ROOT
