@<TRIPOS>MOLECULE
2D8
   24    23     1     0     0
SMALL
No Charge or Current Charge


@<TRIPOS>ATOM
      1 C4           0.3570    -0.3960    -0.2070 c3         1 2D8      -0.407400
      2 C5           1.7150     0.3690    -0.0190 c3         1 2D8      -0.147700
      3 C6           2.9380    -0.5900     0.1090 c          1 2D8       0.715000
      4 C7           1.9630     1.4230    -1.1270 c3         1 2D8      -0.066100
      5 N1          -2.7480    -1.9590    -0.7480 n8         1 2D8      -1.006200
      6 P           -1.2200     0.5630    -0.0360 p5         1 2D8       1.351000
      7 C1          -3.9030    -0.1890     0.5840 c3         1 2D8      -0.047100
      8 C2          -2.5310    -0.8190     0.2400 c3         1 2D8      -0.191500
      9 O31         -1.1410     1.4700     1.1540 o          1 2D8      -0.832500
     10 O32         -1.5080     1.2990    -1.3100 o          1 2D8      -0.832500
     11 O61          3.5700    -0.5830     1.1560 o          1 2D8      -0.769000
     12 O62          3.2260    -1.3140    -0.8350 o          1 2D8      -0.769000
     13 H1           0.3340    -0.8830    -1.1870 hc         1 2D8       0.035700
     14 H2           0.2940    -1.1890     0.5460 hc         1 2D8       0.035700
     15 H3           1.6470     0.9170     0.9290 hc         1 2D8       0.043700
     16 H4           1.1850     2.1950    -1.1180 hc         1 2D8       0.011367
     17 H5           2.9280     1.9200    -0.9700 hc         1 2D8       0.011367
     18 H6           1.9760     0.9560    -2.1190 hc         1 2D8       0.011367
     19 H10         -4.6310    -0.9590     0.8690 hc         1 2D8       0.014033
     20 H11         -3.8110     0.5080     1.4260 hc         1 2D8       0.014033
     21 H12         -4.3060     0.3650    -0.2740 hc         1 2D8       0.014033
     22 H13         -2.1610    -1.2840     1.1630 h1         1 2D8       0.045700
     23 H7          -2.9980    -1.5780    -1.6710 hn         1 2D8       0.382000
     24 H8          -1.8570    -2.4440    -0.9260 hn         1 2D8       0.382000
@<TRIPOS>BOND
     1     1     2 1   
     2     1     6 1   
     3     1    13 1   
     4     1    14 1   
     5     2     3 1   
     6     2     4 1   
     7     2    15 1   
     8     3    11 1   
     9     3    12 1   
    10     4    16 1   
    11     4    17 1   
    12     4    18 1   
    13     5     8 1   
    14     5    23 1   
    15     5    24 1   
    16     6     8 1   
    17     6     9 1   
    18     6    10 1   
    19     7     8 1   
    20     7    19 1   
    21     7    20 1   
    22     7    21 1   
    23     8    22 1   
@<TRIPOS>SUBSTRUCTURE
     1 2D8         1 TEMP              0 ****  ****    0 ROOT
