@<TRIPOS>MOLECULE
2D9
   54    57     1     0     0
SMALL
No Charge or Current Charge


@<TRIPOS>ATOM
      1 C31          8.7310     1.4400     0.4400 c3         1 2D9      -0.336100
      2 S28          7.8150    -0.1000     0.4820 sy         1 2D9       1.057500
      3 O29          8.0400    -0.6850     1.8110 o          1 2D9      -0.523500
      4 O30          8.1670    -0.8310    -0.7420 o          1 2D9      -0.523500
      5 C25          6.0970     0.4440     0.3660 ca         1 2D9      -0.270500
      6 C26          5.4850     0.5940    -0.8960 ca         1 2D9      -0.018000
      7 C27          4.1500     1.0260    -0.9830 ca         1 2D9      -0.120500
      8 C24          5.3640     0.7340     1.5350 ca         1 2D9      -0.018000
      9 C23          4.0290     1.1650     1.4400 ca         1 2D9      -0.120500
     10 C19          3.4140     1.3130     0.1820 ca         1 2D9      -0.033300
     11 C18          1.9630     1.7790     0.0760 c3         1 2D9       0.210100
     12 N15          1.0450     0.7410    -0.4520 n3         1 2D9      -0.732600
     13 C16         -0.3330     1.2660    -0.6920 c6         1 2D9       0.160300
     14 C17         -1.2940     0.1870    -1.2860 c6         1 2D9       0.167300
     15 C14          0.9830    -0.4850     0.4050 c6         1 2D9       0.160300
     16 C13          0.0490    -1.5830    -0.1920 c6         1 2D9       0.167300
     17 N12         -1.3330    -1.0720    -0.4660 nh         1 2D9      -0.735400
     18 C3          -2.3660    -1.9740    -0.6900 cc         1 2D9       0.075000
     19 C2          -2.2090    -3.2600    -1.2540 cc         1 2D9       0.232900
     20 N1          -3.3380    -3.9070    -1.4550 nd         1 2D9      -0.505800
     21 N5          -4.2830    -2.9840    -1.0020 na         1 2D9       0.003800
     22 C4          -3.7150    -1.7870    -0.5230 cd         1 2D9      -0.057000
     23 C6          -4.4810    -0.7030     0.1490 ca         1 2D9      -0.172000
     24 C7          -5.8570    -0.5680    -0.1500 ca         1 2D9      -0.018000
     25 C8          -6.6380     0.4250     0.4650 ca         1 2D9      -0.031000
     26 Cl20        -8.3450     0.5670     0.0450 cl         1 2D9      -0.206000
     27 C9          -6.0560     1.2920     1.4060 ca         1 2D9       0.206100
     28 O21         -6.8010     2.2580     2.0170 oh         1 2D9      -0.520100
     29 C10         -4.7040     1.1570     1.7300 ca         1 2D9      -0.211000
     30 C11         -3.9210     0.1740     1.1120 ca         1 2D9       0.248100
     31 O22         -2.6350     0.0450     1.5200 oh         1 2D9      -0.582100
     32 H311         8.5040     1.9470    -0.5030 h1         1 2D9       0.102367
     33 H312         8.4140     2.0490     1.2930 h1         1 2D9       0.102367
     34 H313         9.7980     1.2040     0.5070 h1         1 2D9       0.102367
     35 H26          6.0360     0.3780    -1.8110 ha         1 2D9       0.137000
     36 H27          3.6820     1.1340    -1.9580 ha         1 2D9       0.127500
     37 H24          5.8210     0.6270     2.5180 ha         1 2D9       0.137000
     38 H23          3.4720     1.3820     2.3490 ha         1 2D9       0.127500
     39 H181         1.6200     2.1160     1.0640 h1         1 2D9       0.047200
     40 H182         1.9420     2.6590    -0.5810 h1         1 2D9       0.047200
     41 H161        -0.7640     1.6390     0.2490 h1         1 2D9       0.047200
     42 H162        -0.2990     2.1190    -1.3850 h1         1 2D9       0.047200
     43 H171        -2.3000     0.6200    -1.3760 h1         1 2D9       0.055200
     44 H172        -0.9610    -0.0520    -2.3070 h1         1 2D9       0.055200
     45 H141         1.9850    -0.9200     0.5300 h1         1 2D9       0.047200
     46 H142         0.6180    -0.2250     1.4100 h1         1 2D9       0.047200
     47 H131         0.0080    -2.4290     0.5090 h1         1 2D9       0.055200
     48 H132         0.4990    -1.9570    -1.1240 h1         1 2D9       0.055200
     49 H2          -1.2830    -3.7390    -1.5430 h4         1 2D9       0.042100
     50 H5          -5.2760    -3.2100    -1.0050 hn         1 2D9       0.378000
     51 H7          -6.3300    -1.2190    -0.8800 ha         1 2D9       0.121000
     52 H21         -7.7150     2.1900     1.6650 ho         1 2D9       0.482000
     53 H10         -4.2600     1.8130     2.4730 ha         1 2D9       0.148000
     54 H22         -2.1600    -0.4610     0.7920 ho         1 2D9       0.533000
@<TRIPOS>BOND
     1     1     2 1   
     2     1    32 1   
     3     1    33 1   
     4     1    34 1   
     5     2     3 2   
     6     2     4 2   
     7     2     5 1   
     8     5     6 ar  
     9     5     8 ar  
    10     6     7 ar  
    11     6    35 1   
    12     7    10 ar  
    13     7    36 1   
    14     8     9 ar  
    15     8    37 1   
    16     9    10 ar  
    17     9    38 1   
    18    10    11 1   
    19    11    12 1   
    20    11    39 1   
    21    11    40 1   
    22    12    13 1   
    23    12    15 1   
    24    13    14 1   
    25    13    41 1   
    26    13    42 1   
    27    14    17 1   
    28    14    43 1   
    29    14    44 1   
    30    15    16 1   
    31    15    45 1   
    32    15    46 1   
    33    16    17 1   
    34    16    47 1   
    35    16    48 1   
    36    17    18 1   
    37    18    19 1   
    38    18    22 2   
    39    19    20 2   
    40    19    49 1   
    41    20    21 1   
    42    21    22 1   
    43    21    50 1   
    44    22    23 1   
    45    23    24 ar  
    46    23    30 ar  
    47    24    25 ar  
    48    24    51 1   
    49    25    26 1   
    50    25    27 ar  
    51    27    28 1   
    52    27    29 ar  
    53    28    52 1   
    54    29    30 ar  
    55    29    53 1   
    56    30    31 1   
    57    31    54 1   
@<TRIPOS>SUBSTRUCTURE
     1 2D9         1 TEMP              0 ****  ****    0 ROOT
