@<TRIPOS>MOLECULE
2D9
   54    57     1     0     0
SMALL
abcg2


@<TRIPOS>ATOM
      1 C31          8.5520     1.2220    -0.5620 c3         1 2D9      -0.336100
      2 S28          7.7440    -0.1050     0.3030 sy         1 2D9       1.057500
      3 O29          8.2880    -0.1670     1.6590 o          1 2D9      -0.523500
      4 O30          7.8090    -1.3010    -0.5350 o          1 2D9      -0.523500
      5 C25          6.0540     0.4180     0.4030 ca         1 2D9      -0.270500
      6 C26          5.1800     0.0990    -0.6280 ca         1 2D9      -0.018000
      7 C27          3.8620     0.5150    -0.5490 ca         1 2D9      -0.120500
      8 C24          5.6250     1.1350     1.5110 ca         1 2D9      -0.018000
      9 C23          4.3000     1.5390     1.5770 ca         1 2D9      -0.120500
     10 C19          3.4090     1.2410     0.5510 ca         1 2D9      -0.033300
     11 C18          1.9850     1.7310     0.6080 c3         1 2D9       0.210100
     12 N15          1.0570     0.7820     0.0380 n3         1 2D9      -0.732600
     13 C16         -0.2260     1.3700    -0.2850 c6         1 2D9       0.160300
     14 C17         -1.0890     0.3630    -1.0180 c6         1 2D9       0.167300
     15 C14          0.8810    -0.3920     0.8690 c6         1 2D9       0.160300
     16 C13          0.0280    -1.4220     0.1570 c6         1 2D9       0.167300
     17 N12         -1.2660    -0.8430    -0.1980 nh         1 2D9      -0.735400
     18 C3          -2.1740    -1.7690    -0.7580 cc         1 2D9       0.075000
     19 C2          -1.9210    -2.9330    -1.5060 cc         1 2D9       0.232900
     20 N1          -3.0480    -3.5200    -1.8590 nd         1 2D9      -0.505800
     21 N5          -4.0090    -2.7530    -1.3650 na         1 2D9       0.003800
     22 C4          -3.5550    -1.6830    -0.6780 cd         1 2D9      -0.057000
     23 C6          -4.4500    -0.7140    -0.0500 ca         1 2D9      -0.172000
     24 C7          -5.7100    -0.4820    -0.6010 ca         1 2D9      -0.018000
     25 C8          -6.6190     0.3570     0.0060 ca         1 2D9      -0.031000
     26 CL20        -8.1780     0.6230    -0.7080 cl         1 2D9      -0.206000
     27 C9          -6.2950     1.0130     1.1980 ca         1 2D9       0.206100
     28 O21         -7.1340     1.8340     1.8380 oh         1 2D9      -0.520100
     29 C10         -5.0340     0.8120     1.7380 ca         1 2D9      -0.211000
     30 C11         -4.1070    -0.0370     1.1390 ca         1 2D9       0.248100
     31 O22         -2.9340    -0.1930     1.7530 oh         1 2D9      -0.582100
     32 H311         8.0810     1.3640    -1.5320 h1         1 2D9       0.102367
     33 H312         8.4870     2.1330     0.0280 h1         1 2D9       0.102367
     34 H313         9.5960     0.9360    -0.6930 h1         1 2D9       0.102367
     35 H26          5.5150    -0.4690    -1.4860 ha         1 2D9       0.137000
     36 H27          3.1690     0.2640    -1.3400 ha         1 2D9       0.127500
     37 H24          6.3030     1.3700     2.3200 ha         1 2D9       0.137000
     38 H23          3.9570     2.0870     2.4460 ha         1 2D9       0.127500
     39 H181         1.7310     2.0040     1.6450 h1         1 2D9       0.047200
     40 H182         1.9240     2.6560     0.0270 h1         1 2D9       0.047200
     41 H161        -0.7600     1.7250     0.6130 h1         1 2D9       0.047200
     42 H162        -0.0750     2.2350    -0.9330 h1         1 2D9       0.047200
     43 H171        -2.0670     0.8000    -1.2250 h1         1 2D9       0.055200
     44 H172        -0.6280     0.1050    -1.9800 h1         1 2D9       0.055200
     45 H141         1.8530    -0.8420     1.0820 h1         1 2D9       0.047200
     46 H142         0.4230    -0.1380     1.8410 h1         1 2D9       0.047200
     47 H131        -0.1370    -2.2780     0.8120 h1         1 2D9       0.055200
     48 H132         0.5600    -1.7740    -0.7370 h1         1 2D9       0.055200
     49 H2          -0.9690    -3.3570    -1.7850 h4         1 2D9       0.042100
     50 H5          -4.9700    -3.0380    -1.4720 hn         1 2D9       0.378000
     51 H7          -5.9880    -0.9600    -1.5320 ha         1 2D9       0.121000
     52 H21         -7.9820     1.8930     1.3790 ho         1 2D9       0.482000
     53 H10         -4.7660     1.3220     2.6560 ha         1 2D9       0.148000
     54 H22         -2.2080    -0.4450     1.1040 ho         1 2D9       0.533000
@<TRIPOS>BOND
     1     1     2 1   
     2     1    32 1   
     3     1    33 1   
     4     1    34 1   
     5     2     3 2   
     6     2     4 2   
     7     2     5 1   
     8     5     6 ar  
     9     5     8 ar  
    10     6     7 ar  
    11     6    35 1   
    12     7    10 ar  
    13     7    36 1   
    14     8     9 ar  
    15     8    37 1   
    16     9    10 ar  
    17     9    38 1   
    18    10    11 1   
    19    11    12 1   
    20    11    39 1   
    21    11    40 1   
    22    12    13 1   
    23    12    15 1   
    24    13    14 1   
    25    13    41 1   
    26    13    42 1   
    27    14    17 1   
    28    14    43 1   
    29    14    44 1   
    30    15    16 1   
    31    15    45 1   
    32    15    46 1   
    33    16    17 1   
    34    16    47 1   
    35    16    48 1   
    36    17    18 1   
    37    18    19 1   
    38    18    22 2   
    39    19    20 2   
    40    19    49 1   
    41    20    21 1   
    42    21    22 1   
    43    21    50 1   
    44    22    23 1   
    45    23    24 ar  
    46    23    30 ar  
    47    24    25 ar  
    48    24    51 1   
    49    25    26 1   
    50    25    27 ar  
    51    27    28 1   
    52    27    29 ar  
    53    28    52 1   
    54    29    30 ar  
    55    29    53 1   
    56    30    31 1   
    57    31    54 1   
@<TRIPOS>SUBSTRUCTURE
     1 2D9         1 TEMP              0 ****  ****    0 ROOT
