@<TRIPOS>MOLECULE
2DC
   76    79     1     0     0
SMALL
abcg2


@<TRIPOS>ATOM
      1 C1          -4.6630     1.6390    -0.9370 c6         1 2DC      -0.067400
      2 O1          -8.2310     0.6450    -1.3670 oh         1 2DC      -0.660000
      3 C2          -6.1790     1.7830    -0.9730 c6         1 2DC      -0.071400
      4 O2           3.2790    -0.0360     2.0040 oh         1 2DC      -0.678000
      5 C3          -6.8300     0.4620    -1.3310 c6         1 2DC       0.173300
      6 O3           4.4390    -1.6670     0.1940 oh         1 2DC      -0.660000
      7 C4          -6.4190    -0.5980    -0.3140 c6         1 2DC      -0.073200
      8 C5          -4.9230    -0.7270    -0.2030 c2         1 2DC      -0.107400
      9 C6          -4.3390    -1.9210    -0.2950 c2         1 2DC      -0.216200
     10 C7          -2.8750    -2.1740    -0.1460 c6         1 2DC      -0.037200
     11 C8          -2.1130    -0.9670     0.3920 c6         1 2DC      -0.044700
     12 C9          -2.6370     0.3150    -0.2700 c6         1 2DC      -0.046700
     13 C10         -4.1380     0.5550     0.0290 c6         1 2DC       0.004200
     14 C11         -1.7530     1.5270     0.0410 c6         1 2DC      -0.070400
     15 C12         -0.2590     1.2870    -0.1950 c6         1 2DC      -0.064400
     16 C13          0.2490     0.0660     0.5780 c5         1 2DC      -0.039000
     17 C14         -0.6260    -1.1170     0.1230 c5         1 2DC      -0.065700
     18 C15          0.0760    -2.3400     0.6910 c5         1 2DC      -0.076400
     19 C16          1.5700    -1.9870     0.5830 c5         1 2DC      -0.069400
     20 C17          1.6530    -0.4870     0.1840 c5         1 2DC      -0.078700
     21 C18          0.1390     0.2950     2.0900 c3         1 2DC      -0.085100
     22 C19         -4.3620     1.0020     1.4830 c3         1 2DC      -0.079100
     23 C20          2.9540     0.2310     0.6460 c3         1 2DC       0.166000
     24 C21          2.8500     1.7410     0.4340 c3         1 2DC      -0.123100
     25 C22          4.1670    -0.3270    -0.1560 c3         1 2DC       0.186300
     26 C23          5.4410     0.5170    -0.0520 c3         1 2DC      -0.104400
     27 C24          6.6320    -0.1290    -0.7560 c3         1 2DC      -0.067400
     28 C25          7.8410     0.7970    -0.9060 c3         1 2DC      -0.062700
     29 C26          8.3960     1.2450     0.4420 c3         1 2DC      -0.087100
     30 C27          8.9290     0.1110    -1.7270 c3         1 2DC      -0.087100
     31 H1          -4.3080     1.4050    -1.9480 hc         1 2DC       0.042200
     32 H1A         -4.2220     2.6020    -0.6740 hc         1 2DC       0.042200
     33 HO1         -8.6360    -0.1900    -1.6230 ho         1 2DC       0.441000
     34 H2          -6.5580     2.1260    -0.0040 hc         1 2DC       0.053200
     35 H2A         -6.4510     2.5480    -1.7060 hc         1 2DC       0.053200
     36 HO2          2.5870     0.3130     2.5730 ho         1 2DC       0.452000
     37 H3          -6.4600     0.1510    -2.3210 h1         1 2DC       0.030700
     38 HO3          4.5290    -1.7040     1.1520 ho         1 2DC       0.457000
     39 H4          -6.8510    -0.3170     0.6540 hc         1 2DC       0.049700
     40 H4A         -6.8530    -1.5670    -0.5800 hc         1 2DC       0.049700
     41 H6          -4.9620    -2.7920    -0.4820 ha         1 2DC       0.168000
     42 H7          -2.7240    -3.0370     0.5090 hc         1 2DC       0.047700
     43 H7A         -2.4550    -2.4710    -1.1170 hc         1 2DC       0.047700
     44 H8          -2.2780    -0.9140     1.4740 hc         1 2DC       0.054700
     45 H9          -2.5640     0.1430    -1.3550 hc         1 2DC       0.046700
     46 H11         -2.0640     2.3750    -0.5750 hc         1 2DC       0.040200
     47 H11A        -1.8990     1.8480     1.0750 hc         1 2DC       0.040200
     48 H12         -0.0760     1.1270    -1.2640 hc         1 2DC       0.039700
     49 H12A         0.2730     2.2000     0.0740 hc         1 2DC       0.039700
     50 H14         -0.5160    -1.1640    -0.9720 hc         1 2DC       0.044700
     51 H15         -0.2210    -2.5030     1.7320 hc         1 2DC       0.041700
     52 H15A        -0.1760    -3.2540     0.1500 hc         1 2DC       0.041700
     53 H16          2.0750    -2.1710     1.5310 hc         1 2DC       0.054200
     54 H16A         2.0660    -2.6100    -0.1580 hc         1 2DC       0.054200
     55 H17          1.6770    -0.4310    -0.9130 hc         1 2DC       0.050700
     56 H18         -0.8910     0.4370     2.4150 hc         1 2DC       0.033700
     57 H18A         0.5290    -0.5470     2.6660 hc         1 2DC       0.033700
     58 H18B         0.6750     1.1950     2.4020 hc         1 2DC       0.033700
     59 H19         -5.4200     1.0180     1.7470 hc         1 2DC       0.034700
     60 H19A        -3.8690     0.3280     2.1860 hc         1 2DC       0.034700
     61 H19B        -3.9790     2.0080     1.6610 hc         1 2DC       0.034700
     62 H21          3.7530     2.2510     0.7650 hc         1 2DC       0.043700
     63 H21A         2.6850     1.9890    -0.6160 hc         1 2DC       0.043700
     64 H21B         2.0240     2.1650     1.0040 hc         1 2DC       0.043700
     65 H22          3.8710    -0.3490    -1.2110 h1         1 2DC       0.063700
     66 H23          5.2650     1.4920    -0.5150 hc         1 2DC       0.045700
     67 H23A         5.6780     0.7130     0.9980 hc         1 2DC       0.045700
     68 H24          6.9420    -1.0340    -0.2250 hc         1 2DC       0.044700
     69 H24A         6.3190    -0.4540    -1.7550 hc         1 2DC       0.044700
     70 H25          7.5140     1.6900    -1.4530 hc         1 2DC       0.039700
     71 H26          7.6570     1.7890     1.0330 hc         1 2DC       0.031700
     72 H26A         8.7240     0.3850     1.0320 hc         1 2DC       0.031700
     73 H26B         9.2570     1.9020     0.3120 hc         1 2DC       0.031700
     74 H27          8.5650    -0.1680    -2.7180 hc         1 2DC       0.031700
     75 H27A         9.7980     0.7590    -1.8610 hc         1 2DC       0.031700
     76 H27B         9.2690    -0.8010    -1.2310 hc         1 2DC       0.031700
@<TRIPOS>BOND
     1     1     3 1   
     2     1    13 1   
     3     1    31 1   
     4     1    32 1   
     5     2     5 1   
     6     2    33 1   
     7     3     5 1   
     8     3    34 1   
     9     3    35 1   
    10     4    23 1   
    11     4    36 1   
    12     5     7 1   
    13     5    37 1   
    14     6    25 1   
    15     6    38 1   
    16     7     8 1   
    17     7    39 1   
    18     7    40 1   
    19     8     9 2   
    20     8    13 1   
    21     9    10 1   
    22     9    41 1   
    23    10    11 1   
    24    10    42 1   
    25    10    43 1   
    26    11    12 1   
    27    11    17 1   
    28    11    44 1   
    29    12    13 1   
    30    12    14 1   
    31    12    45 1   
    32    13    22 1   
    33    14    15 1   
    34    14    46 1   
    35    14    47 1   
    36    15    16 1   
    37    15    48 1   
    38    15    49 1   
    39    16    17 1   
    40    16    20 1   
    41    16    21 1   
    42    17    18 1   
    43    17    50 1   
    44    18    19 1   
    45    18    51 1   
    46    18    52 1   
    47    19    20 1   
    48    19    53 1   
    49    19    54 1   
    50    20    23 1   
    51    20    55 1   
    52    21    56 1   
    53    21    57 1   
    54    21    58 1   
    55    22    59 1   
    56    22    60 1   
    57    22    61 1   
    58    23    24 1   
    59    23    25 1   
    60    24    62 1   
    61    24    63 1   
    62    24    64 1   
    63    25    26 1   
    64    25    65 1   
    65    26    27 1   
    66    26    66 1   
    67    26    67 1   
    68    27    28 1   
    69    27    68 1   
    70    27    69 1   
    71    28    29 1   
    72    28    30 1   
    73    28    70 1   
    74    29    71 1   
    75    29    72 1   
    76    29    73 1   
    77    30    74 1   
    78    30    75 1   
    79    30    76 1   
@<TRIPOS>SUBSTRUCTURE
     1 2DC         1 TEMP              0 ****  ****    0 ROOT
