@<TRIPOS>MOLECULE
2DC
   76    79     1     0     0
SMALL
No Charge or Current Charge


@<TRIPOS>ATOM
      1 C1          -4.7600     1.6940    -0.9240 c6         1 2DC      -0.067400
      2 O1          -8.3330     0.5650    -1.5650 oh         1 2DC      -0.660000
      3 C2          -6.3020     1.7950    -1.0210 c6         1 2DC      -0.071400
      4 O2           3.2660     0.1480     2.0640 oh         1 2DC      -0.678000
      5 C3          -6.9080     0.4560    -1.4870 c6         1 2DC       0.173300
      6 O3           4.5480    -1.5810     0.4750 oh         1 2DC      -0.660000
      7 C4          -6.5110    -0.6750    -0.5130 c6         1 2DC      -0.073200
      8 C5          -4.9940    -0.7750    -0.3190 c2         1 2DC      -0.107400
      9 C6          -4.3790    -1.9680    -0.4030 c2         1 2DC      -0.216200
     10 C7          -2.8900    -2.1900    -0.2090 c6         1 2DC      -0.037200
     11 C8          -2.1550    -0.9710     0.4110 c6         1 2DC      -0.044700
     12 C9          -2.6880     0.3580    -0.2180 c6         1 2DC      -0.046700
     13 C10         -4.2490     0.5410     0.0110 c6         1 2DC       0.004200
     14 C11         -1.8310     1.5890     0.2420 c6         1 2DC      -0.070400
     15 C12         -0.3030     1.3860     0.0380 c6         1 2DC      -0.064400
     16 C13          0.2330     0.0980     0.7500 c5         1 2DC      -0.039000
     17 C14         -0.6170    -1.0920     0.1890 c5         1 2DC      -0.065700
     18 C15          0.0840    -2.3280     0.7980 c5         1 2DC      -0.076400
     19 C16          1.5940    -1.9590     0.6930 c5         1 2DC      -0.069400
     20 C17          1.6590    -0.4330     0.2740 c5         1 2DC      -0.078700
     21 C18          0.1360     0.3010     2.3010 c3         1 2DC      -0.085100
     22 C19         -4.5820     0.8790     1.5070 c3         1 2DC      -0.079100
     23 C20          3.0130     0.3160     0.6580 c3         1 2DC       0.166000
     24 C21          2.9210     1.8460     0.4200 c3         1 2DC      -0.123100
     25 C22          4.2510    -0.3150    -0.1230 c3         1 2DC       0.186300
     26 C23          5.5730     0.5120    -0.1340 c3         1 2DC      -0.104400
     27 C24          6.7610    -0.1850    -0.8510 c3         1 2DC      -0.067400
     28 C25          8.0190     0.7070    -1.0410 c3         1 2DC      -0.062700
     29 C26          8.6310     1.1800     0.3000 c3         1 2DC      -0.087100
     30 C27          9.0810    -0.0120    -1.9030 c3         1 2DC      -0.087100
     31 H1          -4.3650     1.5470    -1.9390 hc         1 2DC       0.042200
     32 H1A         -4.3710     2.6630    -0.5860 hc         1 2DC       0.042200
     33 HO1         -8.6610    -0.2890    -1.9240 ho         1 2DC       0.441000
     34 H2          -6.7290     2.0910    -0.0530 hc         1 2DC       0.053200
     35 H2A         -6.5710     2.5890    -1.7310 hc         1 2DC       0.053200
     36 HO2          2.4690     0.4760     2.5290 ho         1 2DC       0.452000
     37 H3          -6.5000     0.2180    -2.4810 h1         1 2DC       0.030700
     38 HO3          4.2430    -1.4470     1.4030 ho         1 2DC       0.457000
     39 H4          -6.9920    -0.5070     0.4600 hc         1 2DC       0.049700
     40 H4A         -6.9110    -1.6300    -0.8810 hc         1 2DC       0.049700
     41 H6          -4.9530    -2.8690    -0.6240 ha         1 2DC       0.168000
     42 H7          -2.7360    -3.0720     0.4280 hc         1 2DC       0.047700
     43 H7A         -2.4540    -2.4400    -1.1870 hc         1 2DC       0.047700
     44 H8          -2.3550    -0.9690     1.4900 hc         1 2DC       0.054700
     45 H9          -2.5320     0.2630    -1.3020 hc         1 2DC       0.046700
     46 H11         -2.1290     2.4840    -0.3170 hc         1 2DC       0.040200
     47 H11A        -2.0170     1.8230     1.2970 hc         1 2DC       0.040200
     48 H12         -0.0900     1.3380    -1.0390 hc         1 2DC       0.039700
     49 H12A         0.1960     2.2860     0.4090 hc         1 2DC       0.039700
     50 H14         -0.5140    -1.1350    -0.9040 hc         1 2DC       0.044700
     51 H15         -0.2180    -2.4970     1.8380 hc         1 2DC       0.041700
     52 H15A        -0.1500    -3.2470     0.2480 hc         1 2DC       0.041700
     53 H16          2.0870    -2.1560     1.6510 hc         1 2DC       0.054200
     54 H16A         2.0960    -2.5900    -0.0500 hc         1 2DC       0.054200
     55 H17          1.6620    -0.3940    -0.8230 hc         1 2DC       0.050700
     56 H18         -0.9000     0.3830     2.6480 hc         1 2DC       0.033700
     57 H18A         0.5860    -0.5250     2.8640 hc         1 2DC       0.033700
     58 H18B         0.6460     1.2180     2.6140 hc         1 2DC       0.033700
     59 H19         -5.6610     0.9280     1.6880 hc         1 2DC       0.034700
     60 H19A        -4.1850     0.1270     2.1960 hc         1 2DC       0.034700
     61 H19B        -4.1810     1.8530     1.8080 hc         1 2DC       0.034700
     62 H21          3.8620     2.3580     0.6480 hc         1 2DC       0.043700
     63 H21A         2.6460     2.0700    -0.6180 hc         1 2DC       0.043700
     64 H21B         2.1920     2.3050     1.0920 hc         1 2DC       0.043700
     65 H22          3.9510    -0.4590    -1.1700 h1         1 2DC       0.063700
     66 H23          5.3980     1.4600    -0.6540 hc         1 2DC       0.045700
     67 H23A         5.8530     0.7520     0.8990 hc         1 2DC       0.045700
     68 H24          7.0470    -1.0880    -0.2960 hc         1 2DC       0.044700
     69 H24A         6.4180    -0.5220    -1.8380 hc         1 2DC       0.044700
     70 H25          7.7110     1.6030    -1.5950 hc         1 2DC       0.039700
     71 H26          7.9300     1.8160     0.8540 hc         1 2DC       0.031700
     72 H26A         8.8960     0.3240     0.9320 hc         1 2DC       0.031700
     73 H26B         9.5390     1.7700     0.1230 hc         1 2DC       0.031700
     74 H27          8.6650    -0.2950    -2.8770 hc         1 2DC       0.031700
     75 H27A         9.9430     0.6410    -2.0830 hc         1 2DC       0.031700
     76 H27B         9.4380    -0.9220    -1.4050 hc         1 2DC       0.031700
@<TRIPOS>BOND
     1     1     3 1   
     2     1    13 1   
     3     1    31 1   
     4     1    32 1   
     5     2     5 1   
     6     2    33 1   
     7     3     5 1   
     8     3    34 1   
     9     3    35 1   
    10     4    23 1   
    11     4    36 1   
    12     5     7 1   
    13     5    37 1   
    14     6    25 1   
    15     6    38 1   
    16     7     8 1   
    17     7    39 1   
    18     7    40 1   
    19     8     9 2   
    20     8    13 1   
    21     9    10 1   
    22     9    41 1   
    23    10    11 1   
    24    10    42 1   
    25    10    43 1   
    26    11    12 1   
    27    11    17 1   
    28    11    44 1   
    29    12    13 1   
    30    12    14 1   
    31    12    45 1   
    32    13    22 1   
    33    14    15 1   
    34    14    46 1   
    35    14    47 1   
    36    15    16 1   
    37    15    48 1   
    38    15    49 1   
    39    16    17 1   
    40    16    20 1   
    41    16    21 1   
    42    17    18 1   
    43    17    50 1   
    44    18    19 1   
    45    18    51 1   
    46    18    52 1   
    47    19    20 1   
    48    19    53 1   
    49    19    54 1   
    50    20    23 1   
    51    20    55 1   
    52    21    56 1   
    53    21    57 1   
    54    21    58 1   
    55    22    59 1   
    56    22    60 1   
    57    22    61 1   
    58    23    24 1   
    59    23    25 1   
    60    24    62 1   
    61    24    63 1   
    62    24    64 1   
    63    25    26 1   
    64    25    65 1   
    65    26    27 1   
    66    26    66 1   
    67    26    67 1   
    68    27    28 1   
    69    27    68 1   
    70    27    69 1   
    71    28    29 1   
    72    28    30 1   
    73    28    70 1   
    74    29    71 1   
    75    29    72 1   
    76    29    73 1   
    77    30    74 1   
    78    30    75 1   
    79    30    76 1   
@<TRIPOS>SUBSTRUCTURE
     1 2DC         1 TEMP              0 ****  ****    0 ROOT
