@<TRIPOS>MOLECULE
2DD
   43    45     1     0     0
SMALL
No Charge or Current Charge


@<TRIPOS>ATOM
      1 Cl1          7.2020     0.2720    -2.0550 cl         1 2DD      -0.203000
      2 C1           6.0560     0.2510    -0.7130 ca         1 2DD      -0.029000
      3 C2           6.3110     0.9840     0.4600 ca         1 2DD       0.208100
      4 C3           5.3930     0.9500     1.5140 ca         1 2DD      -0.203000
      5 C4           4.2190     0.1930     1.4040 ca         1 2DD       0.257100
      6 O4           3.3390     0.2180     2.4340 oh         1 2DD      -0.580100
      7 O2           7.4470     1.7300     0.5830 oh         1 2DD      -0.518100
      8 C6           4.8840    -0.5160    -0.8190 ca         1 2DD      -0.017000
      9 C5           3.9430    -0.5510     0.2330 ca         1 2DD      -0.187000
     10 C7           2.7900    -1.4550     0.0880 cc         1 2DD       0.015000
     11 N2           2.8410    -2.7670    -0.3690 na         1 2DD       0.005800
     12 N1           1.5920    -3.3300    -0.5670 nc         1 2DD      -0.505800
     13 C9           0.7770    -2.3400    -0.2580 cd         1 2DD       0.268900
     14 C8           1.4440    -1.1550     0.1380 cd         1 2DD      -0.307600
     15 C10          0.7990     0.1220     0.5060 c          1 2DD       0.670700
     16 O5           1.3950     1.0930     0.9470 o          1 2DD      -0.646100
     17 N3          -0.5620     0.1230     0.3490 ns         1 2DD      -0.480900
     18 C17         -1.4240     1.2600     0.6610 c3         1 2DD       0.135300
     19 C11         -2.8820     0.9420     0.3650 ca         1 2DD      -0.060300
     20 C12         -3.6980     0.3660     1.3570 ca         1 2DD      -0.120000
     21 C13         -5.0440     0.0650     1.0850 ca         1 2DD      -0.009000
     22 C16         -3.4240     1.2110    -0.9060 ca         1 2DD      -0.120000
     23 C15         -4.7690     0.9120    -1.1840 ca         1 2DD      -0.009000
     24 C14         -5.5850     0.3360    -0.1880 ca         1 2DD      -0.267500
     25 S1          -7.3040    -0.0490    -0.5400 sy         1 2DD       1.125600
     26 O6          -7.5340    -0.1470    -1.9800 o          1 2DD      -0.543000
     27 O7          -7.8230    -1.0370     0.4020 o          1 2DD      -0.543000
     28 N4          -8.0820     1.3230    -0.1220 n8         1 2DD      -1.003100
     29 H3           5.5860     1.5190     2.4180 ha         1 2DD       0.152000
     30 H4           2.4900     0.5310     2.0140 ho         1 2DD       0.535000
     31 H2           7.9570     1.6270    -0.2490 ho         1 2DD       0.482000
     32 H6           4.7080    -1.0870    -1.7290 ha         1 2DD       0.125000
     33 HA           3.6920    -3.2960    -0.5480 hn         1 2DD       0.382000
     34 H9          -0.2900    -2.5080    -0.3400 h4         1 2DD       0.042100
     35 HB          -0.9880    -0.7170    -0.0190 hn         1 2DD       0.325500
     36 H171        -1.1040     2.1270     0.0660 h1         1 2DD       0.073700
     37 H172        -1.3070     1.5190     1.7220 h1         1 2DD       0.073700
     38 H12         -3.2900     0.1500     2.3420 ha         1 2DD       0.124000
     39 H13         -5.6610    -0.3780     1.8660 ha         1 2DD       0.140000
     40 H16         -2.8030     1.6520    -1.6820 ha         1 2DD       0.124000
     41 H15         -5.1720     1.1300    -2.1720 ha         1 2DD       0.140000
     42 H4N1        -8.6150     1.4970    -0.9710 hn         1 2DD       0.474000
     43 H4N2        -8.7920     0.9470     0.5010 hn         1 2DD       0.474000
@<TRIPOS>BOND
     1     1     2 1   
     2     2     3 ar  
     3     2     8 ar  
     4     3     4 ar  
     5     3     7 1   
     6     4     5 ar  
     7     4    29 1   
     8     5     6 1   
     9     5     9 ar  
    10     6    30 1   
    11     7    31 1   
    12     8     9 ar  
    13     8    32 1   
    14     9    10 1   
    15    10    11 1   
    16    10    14 2   
    17    11    12 1   
    18    11    33 1   
    19    12    13 2   
    20    13    14 1   
    21    13    34 1   
    22    14    15 1   
    23    15    16 2   
    24    15    17 1   
    25    17    18 1   
    26    17    35 1   
    27    18    19 1   
    28    18    36 1   
    29    18    37 1   
    30    19    20 ar  
    31    19    22 ar  
    32    20    21 ar  
    33    20    38 1   
    34    21    24 ar  
    35    21    39 1   
    36    22    23 ar  
    37    22    40 1   
    38    23    24 ar  
    39    23    41 1   
    40    24    25 1   
    41    25    26 2   
    42    25    27 2   
    43    25    28 1   
    44    28    42 1   
    45    28    43 1   
@<TRIPOS>SUBSTRUCTURE
     1 2DD         1 TEMP              0 ****  ****    0 ROOT
