@<TRIPOS>MOLECULE
2DD
   43    45     1     0     0
SMALL
abcg2


@<TRIPOS>ATOM
      1 CL1          7.5420    -0.1520    -0.8360 cl         1 2DD      -0.203000
      2 C1           6.0870     0.0260     0.0920 ca         1 2DD      -0.029000
      3 C2           6.1080     0.8160     1.2440 ca         1 2DD       0.208100
      4 C3           4.9290     0.9670     1.9630 ca         1 2DD      -0.203000
      5 C4           3.7510     0.3420     1.5700 ca         1 2DD       0.257100
      6 O4           2.6680     0.5110     2.3330 oh         1 2DD      -0.580100
      7 O2           7.2000     1.4450     1.6860 oh         1 2DD      -0.518100
      8 C6           4.9280    -0.6070    -0.3030 ca         1 2DD      -0.017000
      9 C5           3.7460    -0.4740     0.4240 ca         1 2DD      -0.187000
     10 C7           2.5980    -1.2940     0.0240 cc         1 2DD       0.015000
     11 N2           2.7780    -2.5990    -0.2420 na         1 2DD       0.005800
     12 N1           1.6870    -3.2300    -0.6570 nc         1 2DD      -0.505800
     13 C9           0.7530    -2.3090    -0.6790 cd         1 2DD       0.268900
     14 C8           1.2540    -1.0590    -0.2570 cd         1 2DD      -0.307600
     15 C10          0.5220     0.2030    -0.1610 c          1 2DD       0.670700
     16 O5           0.8420     1.0840     0.6490 o          1 2DD      -0.646100
     17 N3          -0.5180     0.3390    -0.9880 ns         1 2DD      -0.480900
     18 C17         -1.4230     1.4660    -0.9990 c3         1 2DD       0.135300
     19 C11         -2.8340     1.0500    -0.6670 ca         1 2DD      -0.060300
     20 C12         -3.1080     0.3690     0.5190 ca         1 2DD      -0.120000
     21 C13         -4.3980    -0.0140     0.8290 ca         1 2DD      -0.009000
     22 C16         -3.8740     1.3430    -1.5380 ca         1 2DD      -0.120000
     23 C15         -5.1780     0.9650    -1.2410 ca         1 2DD      -0.009000
     24 C14         -5.4260     0.2890    -0.0580 ca         1 2DD      -0.267500
     25 S1          -7.0710    -0.2330     0.3300 sy         1 2DD       1.125600
     26 O6          -7.8940    -0.0270    -0.8550 o          1 2DD      -0.543000
     27 O7          -7.0320    -1.5630     0.9190 o          1 2DD      -0.543000
     28 N4          -7.4510     0.7970     1.5640 n8         1 2DD      -1.003100
     29 H3           4.9270     1.5890     2.8500 ha         1 2DD       0.152000
     30 H4           1.8740     0.6700     1.7470 ho         1 2DD       0.535000
     31 H2           7.9560     1.2820     1.1070 ho         1 2DD       0.482000
     32 H6           4.9440    -1.2170    -1.1980 ha         1 2DD       0.125000
     33 HA           3.6380    -3.1160    -0.1240 hn         1 2DD       0.382000
     34 H9          -0.2560    -2.5610    -0.9700 h4         1 2DD       0.042100
     35 HB          -0.6650    -0.3660    -1.6930 hn         1 2DD       0.325500
     36 H171        -1.3960     1.9400    -1.9810 h1         1 2DD       0.073700
     37 H172        -1.0690     2.2020    -0.2790 h1         1 2DD       0.073700
     38 H12         -2.3070     0.1350     1.2100 ha         1 2DD       0.124000
     39 H13         -4.5980    -0.5410     1.7530 ha         1 2DD       0.140000
     40 H16         -3.6720     1.8670    -2.4630 ha         1 2DD       0.124000
     41 H15         -5.9760     1.1930    -1.9330 ha         1 2DD       0.140000
     42 H4N1        -7.6430     1.7400     1.2430 hn         1 2DD       0.474000
     43 H4N2        -8.2310     0.4470     2.1120 hn         1 2DD       0.474000
@<TRIPOS>BOND
     1     1     2 1   
     2     2     3 ar  
     3     2     8 ar  
     4     3     4 ar  
     5     3     7 1   
     6     4     5 ar  
     7     4    29 1   
     8     5     6 1   
     9     5     9 ar  
    10     6    30 1   
    11     7    31 1   
    12     8     9 ar  
    13     8    32 1   
    14     9    10 1   
    15    10    11 1   
    16    10    14 2   
    17    11    12 1   
    18    11    33 1   
    19    12    13 2   
    20    13    14 1   
    21    13    34 1   
    22    14    15 1   
    23    15    16 2   
    24    15    17 1   
    25    17    18 1   
    26    17    35 1   
    27    18    19 1   
    28    18    36 1   
    29    18    37 1   
    30    19    20 ar  
    31    19    22 ar  
    32    20    21 ar  
    33    20    38 1   
    34    21    24 ar  
    35    21    39 1   
    36    22    23 ar  
    37    22    40 1   
    38    23    24 ar  
    39    23    41 1   
    40    24    25 1   
    41    25    26 2   
    42    25    27 2   
    43    25    28 1   
    44    28    42 1   
    45    28    43 1   
@<TRIPOS>SUBSTRUCTURE
     1 2DD         1 TEMP              0 ****  ****    0 ROOT
