@<TRIPOS>MOLECULE
2DG
   23    23     1     0     0
SMALL
abcg2


@<TRIPOS>ATOM
      1 C1         -12.1160    20.3510   -25.8250 c6         1 2DG       0.389300
      2 C2         -12.0550    21.6500   -25.0370 c6         1 2DG      -0.092400
      3 C3         -13.1720    22.5940   -25.4510 c6         1 2DG       0.182300
      4 C4         -13.1410    22.8140   -26.9650 c6         1 2DG       0.112300
      5 C5         -13.2180    21.4430   -27.6440 c6         1 2DG       0.144300
      6 C6         -13.0810    21.5000   -29.1580 c3         1 2DG       0.155600
      7 O1         -13.2130    19.6130   -25.3740 oh         1 2DG      -0.682000
      8 O3         -13.0310    23.7850   -24.7180 oh         1 2DG      -0.643000
      9 O4         -11.9680    23.5180   -27.2980 oh         1 2DG      -0.699000
     10 O5         -12.1740    20.5900   -27.2070 os         1 2DG      -0.485000
     11 O6         -14.0730    22.3650   -29.6590 oh         1 2DG      -0.731000
     12 H1         -11.1870    19.7870   -25.6880 h2         1 2DG       0.066700
     13 H2         -12.1100    21.4320   -23.9680 hc         1 2DG       0.076700
     14 H22        -11.0850    22.1180   -25.2200 hc         1 2DG       0.076700
     15 H3         -14.1370    22.1180   -25.2270 h1         1 2DG       0.043700
     16 H4         -14.0370    23.3820   -27.2500 h1         1 2DG       0.046700
     17 H5         -14.1980    21.0100   -27.4010 h1         1 2DG       0.057700
     18 H61        -12.0710    21.8420   -29.4180 h1         1 2DG       0.036700
     19 H62        -13.1870    20.4840   -29.5580 h1         1 2DG       0.036700
     20 HO1        -13.1850    18.7380   -25.7770 ho         1 2DG       0.453000
     21 HO3        -13.7740    24.3610   -24.9260 ho         1 2DG       0.442000
     22 HO4        -12.0830    23.9070   -28.1700 ho         1 2DG       0.503000
     23 HO6        -13.9650    22.4260   -30.6120 ho         1 2DG       0.511000
@<TRIPOS>BOND
     1     1     2 1   
     2     1     7 1   
     3     1    10 1   
     4     1    12 1   
     5     2     3 1   
     6     2    13 1   
     7     2    14 1   
     8     3     4 1   
     9     3     8 1   
    10     3    15 1   
    11     4     5 1   
    12     4     9 1   
    13     4    16 1   
    14     5     6 1   
    15     5    10 1   
    16     5    17 1   
    17     6    11 1   
    18     6    18 1   
    19     6    19 1   
    20     7    20 1   
    21     8    21 1   
    22     9    22 1   
    23    11    23 1   
@<TRIPOS>SUBSTRUCTURE
     1 2DG         1 TEMP              0 ****  ****    0 ROOT
