@<TRIPOS>MOLECULE
2DG
   23    23     1     0     0
SMALL
No Charge or Current Charge


@<TRIPOS>ATOM
      1 C1         -12.0370    20.3670   -25.7700 c6         1 2DG       0.389300
      2 C2         -12.1160    21.6610   -24.9270 c6         1 2DG      -0.092400
      3 C3         -13.3030    22.5600   -25.3620 c6         1 2DG       0.182300
      4 C4         -13.2720    22.8220   -26.8980 c6         1 2DG       0.112300
      5 C5         -13.2180    21.4370   -27.6260 c6         1 2DG       0.144300
      6 C6         -13.1270    21.5450   -29.1810 c3         1 2DG       0.155600
      7 O1         -13.1330    19.5040   -25.4960 oh         1 2DG      -0.682000
      8 O3         -13.2450    23.8130   -24.6700 oh         1 2DG      -0.643000
      9 O4         -12.1430    23.6710   -27.2240 oh         1 2DG      -0.699000
     10 O5         -12.0660    20.6710   -27.1760 os         1 2DG      -0.485000
     11 O6         -14.2070    22.3050   -29.7540 oh         1 2DG      -0.731000
     12 H1         -11.0950    19.8460   -25.5330 h2         1 2DG       0.066700
     13 H2         -12.2070    21.4060   -23.8640 hc         1 2DG       0.076700
     14 H22        -11.1700    22.2080   -25.0340 hc         1 2DG       0.076700
     15 H3         -14.2410    22.0410   -25.1150 h1         1 2DG       0.043700
     16 H4         -14.2100    23.3240   -27.1790 h1         1 2DG       0.046700
     17 H5         -14.1360    20.8770   -27.3940 h1         1 2DG       0.057700
     18 H61        -12.1620    21.9970   -29.4480 h1         1 2DG       0.036700
     19 H62        -13.1300    20.5240   -29.5890 h1         1 2DG       0.036700
     20 HO1        -13.0340    18.7670   -26.1340 ho         1 2DG       0.453000
     21 HO3        -12.6820    24.3720   -25.2540 ho         1 2DG       0.442000
     22 HO4        -12.2080    23.8710   -28.1870 ho         1 2DG       0.503000
     23 HO6        -14.1200    22.2400   -30.7350 ho         1 2DG       0.511000
@<TRIPOS>BOND
     1     1     2 1   
     2     1     7 1   
     3     1    10 1   
     4     1    12 1   
     5     2     3 1   
     6     2    13 1   
     7     2    14 1   
     8     3     4 1   
     9     3     8 1   
    10     3    15 1   
    11     4     5 1   
    12     4     9 1   
    13     4    16 1   
    14     5     6 1   
    15     5    10 1   
    16     5    17 1   
    17     6    11 1   
    18     6    18 1   
    19     6    19 1   
    20     7    20 1   
    21     8    21 1   
    22     9    22 1   
    23    11    23 1   
@<TRIPOS>SUBSTRUCTURE
     1 2DG         1 TEMP              0 ****  ****    0 ROOT
