@<TRIPOS>MOLECULE
2DH
   45    47     1     0     0
SMALL
No Charge or Current Charge


@<TRIPOS>ATOM
      1 O           -3.7730     1.7880     3.6580 o          1 2DH      -0.705500
      2 C           -2.9030     1.8790     2.8040 c          1 2DH       0.721000
      3 OXT         -2.5750     2.9350     2.2830 o          1 2DH      -0.705500
      4 CA          -2.1830     0.5950     2.3700 c3         1 2DH      -0.104400
      5 N           -2.4370     0.2440     0.9590 na         1 2DH       0.017300
      6 CBB         -3.6040    -0.3780     0.5260 ca         1 2DH      -0.070200
      7 CAO         -4.7170    -0.7860     1.2810 ca         1 2DH      -0.068000
      8 CAN         -5.7950    -1.4030     0.6090 ca         1 2DH      -0.186000
      9 CAW         -5.7470    -1.6000    -0.7980 ca         1 2DH       0.090100
     10 OAT         -6.7760    -2.1980    -1.4980 os         1 2DH      -0.357100
     11 CAA         -7.9730    -2.6650    -0.8510 c3         1 2DH       0.158900
     12 CAP         -4.6150    -1.1770    -1.5250 ca         1 2DH      -0.110000
     13 CBA         -3.5660    -0.5700    -0.8240 ca         1 2DH      -0.071800
     14 CAQ         -2.3220    -0.0540    -1.3000 cc         1 2DH      -0.261200
     15 CAZ         -1.6230     0.4500    -0.1930 cd         1 2DH      -0.076300
     16 CAV         -0.2630     1.0830    -0.2480 c          1 2DH       0.694300
     17 OAC          0.3390     1.5040     0.7280 o          1 2DH      -0.554100
     18 NAS          0.2600     1.1400    -1.5010 ns         1 2DH      -0.574300
     19 SBE          1.7520     1.7360    -1.9510 sy         1 2DH       1.184300
     20 OAD          1.8420     1.4730    -3.3910 o          1 2DH      -0.528000
     21 OAE          1.8340     3.0990    -1.4150 o          1 2DH      -0.528000
     22 CAY          2.9510     0.6960    -1.0910 ca         1 2DH      -0.252500
     23 CAL          3.3430    -0.5380    -1.6500 ca         1 2DH      -0.006500
     24 CAJ          4.2710    -1.3530    -0.9790 ca         1 2DH      -0.090500
     25 CAX          4.8170    -0.9550     0.2610 ca         1 2DH      -0.152300
     26 CBD          5.8370    -1.8420     0.9860 c3         1 2DH       0.352300
     27 FAH          5.6440    -3.1580     0.7360 f          1 2DH      -0.115000
     28 FAI          7.1000    -1.5490     0.6050 f          1 2DH      -0.115000
     29 FAG          5.7850    -1.6940     2.3300 f          1 2DH      -0.115000
     30 CAK          4.4240     0.2860     0.8100 ca         1 2DH      -0.090500
     31 CAM          3.4970     1.1050     0.1430 ca         1 2DH      -0.006500
     32 H2          -1.1110     0.7250     2.5440 h1         1 2DH       0.053700
     33 H3          -2.5200    -0.2300     3.0080 h1         1 2DH       0.053700
     34 H4          -4.7560    -0.6350     2.3570 ha         1 2DH       0.118000
     35 H5          -6.6550    -1.7180     1.1930 ha         1 2DH       0.101000
     36 H6          -8.4950    -1.8370    -0.3530 h1         1 2DH       0.029033
     37 H7          -8.6570    -3.1040    -1.5880 h1         1 2DH       0.029033
     38 H8          -7.7380    -3.4340    -0.1030 h1         1 2DH       0.029033
     39 H9          -4.5600    -1.3190    -2.6010 ha         1 2DH       0.115000
     40 H10         -1.9910    -0.0580    -2.3350 ha         1 2DH       0.188000
     41 H11         -0.2470     0.7650    -2.2800 hn         1 2DH       0.357500
     42 H12          2.9330    -0.8710    -2.6030 ha         1 2DH       0.149000
     43 H13          4.5650    -2.2980    -1.4320 ha         1 2DH       0.129000
     44 H14          4.8370     0.6230     1.7580 ha         1 2DH       0.129000
     45 H15          3.2050     2.0530     0.5930 ha         1 2DH       0.149000
@<TRIPOS>BOND
     1     1     2 1   
     2     2     3 1   
     3     2     4 1   
     4     4     5 1   
     5     4    32 1   
     6     4    33 1   
     7     5     6 1   
     8     5    15 1   
     9     6     7 ar  
    10     6    13 ar  
    11     7     8 ar  
    12     7    34 1   
    13     8     9 ar  
    14     8    35 1   
    15     9    10 1   
    16     9    12 ar  
    17    10    11 1   
    18    11    36 1   
    19    11    37 1   
    20    11    38 1   
    21    12    13 ar  
    22    12    39 1   
    23    13    14 1   
    24    14    15 2   
    25    14    40 1   
    26    15    16 1   
    27    16    17 2   
    28    16    18 1   
    29    18    19 1   
    30    18    41 1   
    31    19    20 2   
    32    19    21 2   
    33    19    22 1   
    34    22    23 ar  
    35    22    31 ar  
    36    23    24 ar  
    37    23    42 1   
    38    24    25 ar  
    39    24    43 1   
    40    25    26 1   
    41    25    30 ar  
    42    26    27 1   
    43    26    28 1   
    44    26    29 1   
    45    30    31 ar  
    46    30    44 1   
    47    31    45 1   
@<TRIPOS>SUBSTRUCTURE
     1 2DH         1 TEMP              0 ****  ****    0 ROOT
