@<TRIPOS>MOLECULE
2DH
   45    47     1     0     0
SMALL
abcg2


@<TRIPOS>ATOM
      1 O           -2.2370     3.0160     0.7620 o          1 2DH      -0.705500
      2 C           -2.2370     2.6240     1.9400 c          1 2DH       0.721000
      3 OXT         -2.1180     3.3010     2.9770 o          1 2DH      -0.705500
      4 CA          -2.4150     1.1070     2.1950 c3         1 2DH      -0.104400
      5 N           -2.5070     0.3130     0.9920 na         1 2DH       0.017300
      6 CBB         -3.5980    -0.4150     0.5980 ca         1 2DH      -0.070200
      7 CAO         -4.7730    -0.7290     1.2770 ca         1 2DH      -0.068000
      8 CAN         -5.7160    -1.5080     0.6340 ca         1 2DH      -0.186000
      9 CAW         -5.5050    -1.9790    -0.6780 ca         1 2DH       0.090100
     10 OAT         -6.4040    -2.7430    -1.3450 os         1 2DH      -0.357100
     11 CAA         -7.6400    -3.0320    -0.7290 c3         1 2DH       0.158900
     12 CAP         -4.3390    -1.6710    -1.3540 ca         1 2DH      -0.110000
     13 CBA         -3.3780    -0.8800    -0.7170 ca         1 2DH      -0.071800
     14 CAQ         -2.1110    -0.3780    -1.1160 cc         1 2DH      -0.261200
     15 CAZ         -1.6270     0.3460    -0.0540 cd         1 2DH      -0.076300
     16 CAV         -0.3240     1.0120     0.0490 c          1 2DH       0.694300
     17 OAC          0.3110     1.1290     1.0740 o          1 2DH      -0.554100
     18 NAS          0.1740     1.4400    -1.1610 ns         1 2DH      -0.574300
     19 SBE          1.6850     2.1380    -1.3290 sy         1 2DH       1.184300
     20 OAD          1.8300     2.3120    -2.7620 o          1 2DH      -0.528000
     21 OAE          1.8150     3.2760    -0.4470 o          1 2DH      -0.528000
     22 CAY          2.7840     0.8610    -0.7860 ca         1 2DH      -0.252500
     23 CAL          3.0160    -0.2150    -1.6290 ca         1 2DH      -0.006500
     24 CAJ          3.8840    -1.2140    -1.2210 ca         1 2DH      -0.090500
     25 CAX          4.5110    -1.1210     0.0150 ca         1 2DH      -0.152300
     26 CBD          5.4860    -2.1740     0.4520 c3         1 2DH       0.352300
     27 FAH          5.3150    -3.3260    -0.1990 f          1 2DH      -0.115000
     28 FAI          6.7490    -1.7830     0.2350 f          1 2DH      -0.115000
     29 FAG          5.3800    -2.4360     1.7590 f          1 2DH      -0.115000
     30 CAK          4.2780    -0.0310     0.8450 ca         1 2DH      -0.090500
     31 CAM          3.4060     0.9680     0.4470 ca         1 2DH      -0.006500
     32 H2          -1.6020     0.7470     2.8260 h1         1 2DH       0.053700
     33 H3          -3.3330     0.9610     2.7650 h1         1 2DH       0.053700
     34 H4          -4.9620    -0.3870     2.2860 ha         1 2DH       0.118000
     35 H5          -6.6230    -1.7550     1.1680 ha         1 2DH       0.101000
     36 H6          -8.1970    -2.1250    -0.4760 h1         1 2DH       0.029033
     37 H7          -8.2190    -3.6040    -1.4500 h1         1 2DH       0.029033
     38 H8          -7.5210    -3.6320     0.1770 h1         1 2DH       0.029033
     39 H9          -4.1790    -2.0340    -2.3620 ha         1 2DH       0.115000
     40 H10         -1.6100    -0.5630    -2.0540 ha         1 2DH       0.188000
     41 H11         -0.3950     1.4170    -1.9990 hn         1 2DH       0.357500
     42 H12          2.5330    -0.2910    -2.5940 ha         1 2DH       0.149000
     43 H13          4.0590    -2.0520    -1.8800 ha         1 2DH       0.129000
     44 H14          4.7620     0.0540     1.8080 ha         1 2DH       0.129000
     45 H15          3.2250     1.8110     1.0970 ha         1 2DH       0.149000
@<TRIPOS>BOND
     1     1     2 1   
     2     2     3 1   
     3     2     4 1   
     4     4     5 1   
     5     4    32 1   
     6     4    33 1   
     7     5     6 1   
     8     5    15 1   
     9     6     7 ar  
    10     6    13 ar  
    11     7     8 ar  
    12     7    34 1   
    13     8     9 ar  
    14     8    35 1   
    15     9    10 1   
    16     9    12 ar  
    17    10    11 1   
    18    11    36 1   
    19    11    37 1   
    20    11    38 1   
    21    12    13 ar  
    22    12    39 1   
    23    13    14 1   
    24    14    15 2   
    25    14    40 1   
    26    15    16 1   
    27    16    17 2   
    28    16    18 1   
    29    18    19 1   
    30    18    41 1   
    31    19    20 2   
    32    19    21 2   
    33    19    22 1   
    34    22    23 ar  
    35    22    31 ar  
    36    23    24 ar  
    37    23    42 1   
    38    24    25 ar  
    39    24    43 1   
    40    25    26 1   
    41    25    30 ar  
    42    26    27 1   
    43    26    28 1   
    44    26    29 1   
    45    30    31 ar  
    46    30    44 1   
    47    31    45 1   
@<TRIPOS>SUBSTRUCTURE
     1 2DH         1 TEMP              0 ****  ****    0 ROOT
