@<TRIPOS>MOLECULE
2DI
   29    31     1     0     0
SMALL
No Charge or Current Charge


@<TRIPOS>ATOM
      1 N9          -0.1660    -0.2500    -0.5150 na         1 2DI      -0.188500
      2 C4          -1.3670    -0.4830     0.1060 cc         1 2DI       0.071400
      3 N3          -1.6620    -1.4430     1.0540 nc         1 2DI      -0.621100
      4 C2          -2.9290    -1.4280     1.4820 cd         1 2DI       0.504800
      5 N1          -3.8820    -0.5430     1.0330 ns         1 2DI      -0.431400
      6 C6          -3.6650     0.4290     0.0940 c          1 2DI       0.502500
      7 O6          -4.5530     1.1870    -0.2720 o          1 2DI      -0.509000
      8 C5          -2.2580     0.4320    -0.4000 cd         1 2DI       0.135500
      9 N7          -1.6270     1.2340    -1.3450 nd         1 2DI      -0.612000
     10 C8          -0.3720     0.7940    -1.3960 cc         1 2DI       0.418400
     11 C10          4.2920     0.6390     0.5500 c3         1 2DI       0.156600
     12 O5           4.5570     0.4500     1.9530 oh         1 2DI      -0.706000
     13 C7           3.3180    -0.4430     0.0040 c5         1 2DI       0.156300
     14 O4           1.9740    -0.2200     0.4770 os         1 2DI      -0.437000
     15 C1           1.0720    -1.0040    -0.3380 c5         1 2DI       0.318300
     16 C9           1.8720    -1.3490    -1.6370 c5         1 2DI      -0.117400
     17 C3           3.1160    -0.4250    -1.5270 c5         1 2DI      -0.115400
     18 H2          -3.3030    -2.1220     2.2260 h5         1 2DI       0.048800
     19 HN1         -4.8190    -0.5960     1.4060 hn         1 2DI       0.328500
     20 H8           0.4170     1.1830    -2.0290 h5         1 2DI       0.072100
     21 H5'1         3.8590     1.6320     0.3690 h1         1 2DI       0.026700
     22 H5'2         5.2300     0.5790    -0.0180 h1         1 2DI       0.026700
     23 H5           5.1270     1.2020     2.2420 ho         1 2DI       0.507000
     24 H4           3.6580    -1.4330     0.3410 h1         1 2DI       0.072700
     25 H1           0.7990    -1.9290     0.1880 h2         1 2DI       0.103700
     26 H2'1         2.1640    -2.4060    -1.6310 hc         1 2DI       0.077700
     27 H2'2         1.3000    -1.1860    -2.5570 hc         1 2DI       0.077700
     28 H3'1         2.9100     0.5880    -1.8950 hc         1 2DI       0.065700
     29 H3'2         3.9830    -0.8120    -2.0740 hc         1 2DI       0.065700
@<TRIPOS>BOND
     1     1     2 1   
     2     1    10 1   
     3     1    15 1   
     4     2     3 1   
     5     2     8 2   
     6     3     4 2   
     7     4     5 1   
     8     4    18 1   
     9     5     6 1   
    10     5    19 1   
    11     6     7 2   
    12     6     8 1   
    13     8     9 1   
    14     9    10 2   
    15    10    20 1   
    16    11    12 1   
    17    11    13 1   
    18    11    21 1   
    19    11    22 1   
    20    12    23 1   
    21    13    14 1   
    22    13    17 1   
    23    13    24 1   
    24    14    15 1   
    25    15    16 1   
    26    15    25 1   
    27    16    17 1   
    28    16    26 1   
    29    16    27 1   
    30    17    28 1   
    31    17    29 1   
@<TRIPOS>SUBSTRUCTURE
     1 2DI         1 TEMP              0 ****  ****    0 ROOT
