@<TRIPOS>MOLECULE
2DI
   29    31     1     0     0
SMALL
abcg2


@<TRIPOS>ATOM
      1 N9           0.1800    -0.1310     0.4590 na         1 2DI      -0.188500
      2 C4          -1.1340    -0.3940     0.2350 cc         1 2DI       0.071400
      3 N3          -1.7150    -1.6110     0.1630 nc         1 2DI      -0.621100
      4 C2          -2.9880    -1.5420    -0.0530 cd         1 2DI       0.504800
      5 N1          -3.6830    -0.3910    -0.1980 ns         1 2DI      -0.431400
      6 C6          -3.1550     0.9020    -0.1340 c          1 2DI       0.502500
      7 O6          -3.8590     1.8860    -0.2750 o          1 2DI      -0.509000
      8 C5          -1.7460     0.8400     0.1110 cd         1 2DI       0.135500
      9 N7          -0.8350     1.8420     0.2650 nd         1 2DI      -0.612000
     10 C8           0.2950     1.2280     0.4770 cc         1 2DI       0.418400
     11 C10          3.8840     0.8050    -0.4910 c3         1 2DI       0.156600
     12 O5           4.5950     1.3040     0.6150 oh         1 2DI      -0.706000
     13 C7           3.3210    -0.5540    -0.1510 c5         1 2DI       0.156300
     14 O4           2.4220    -0.4700     0.9690 os         1 2DI      -0.437000
     15 C1           1.2320    -1.1330     0.7050 c5         1 2DI       0.318300
     16 C9           1.4840    -1.9990    -0.5230 c5         1 2DI      -0.117400
     17 C3           2.5100    -1.1700    -1.2820 c5         1 2DI      -0.115400
     18 H2          -3.5710    -2.4490    -0.1320 h5         1 2DI       0.048800
     19 HN1         -4.6790    -0.4670    -0.3600 hn         1 2DI       0.328500
     20 H8           1.2350     1.7200     0.6690 h5         1 2DI       0.072100
     21 H5'1         3.0670     1.4750    -0.7920 h1         1 2DI       0.026700
     22 H5'2         4.5290     0.6800    -1.3710 h1         1 2DI       0.026700
     23 H5           4.9410     2.1700     0.3840 ho         1 2DI       0.507000
     24 H4           4.1420    -1.2220     0.1350 h1         1 2DI       0.072700
     25 H1           0.9230    -1.7090     1.5800 h2         1 2DI       0.103700
     26 H2'1         1.9170    -2.9460    -0.1950 hc         1 2DI       0.077700
     27 H2'2         0.5820    -2.2230    -1.0880 hc         1 2DI       0.077700
     28 H3'1         2.0190    -0.3970    -1.8810 hc         1 2DI       0.065700
     29 H3'2         3.1290    -1.7660    -1.9500 hc         1 2DI       0.065700
@<TRIPOS>BOND
     1     1     2 1   
     2     1    10 1   
     3     1    15 1   
     4     2     3 1   
     5     2     8 2   
     6     3     4 2   
     7     4     5 1   
     8     4    18 1   
     9     5     6 1   
    10     5    19 1   
    11     6     7 2   
    12     6     8 1   
    13     8     9 1   
    14     9    10 2   
    15    10    20 1   
    16    11    12 1   
    17    11    13 1   
    18    11    21 1   
    19    11    22 1   
    20    12    23 1   
    21    13    14 1   
    22    13    17 1   
    23    13    24 1   
    24    14    15 1   
    25    15    16 1   
    26    15    25 1   
    27    16    17 1   
    28    16    26 1   
    29    16    27 1   
    30    17    28 1   
    31    17    29 1   
@<TRIPOS>SUBSTRUCTURE
     1 2DI         1 TEMP              0 ****  ****    0 ROOT
