@<TRIPOS>MOLECULE
2DJ
   54    56     1     0     0
SMALL
bcc


@<TRIPOS>ATOM
      1 OXT          1.6450     2.2600    -3.5730 o          1 2DJ      -0.810300
      2 C            2.0060     1.9050    -2.4360 c          1 2DJ       0.933600
      3 O            2.4570     2.6080    -1.5190 o          1 2DJ      -0.810300
      4 CA           1.8900     0.3850    -2.1810 c3         1 2DJ      -0.127700
      5 N            2.2400    -0.0070    -0.8350 na         1 2DJ       0.057600
      6 CBB          3.4550    -0.5200    -0.4830 ca         1 2DJ      -0.061200
      7 CAO          4.5310    -0.9280    -1.2720 ca         1 2DJ      -0.080000
      8 CAN          5.6530    -1.4270    -0.6440 ca         1 2DJ      -0.202000
      9 CAW          5.7250    -1.5330     0.7630 ca         1 2DJ       0.088100
     10 OAT          6.8080    -2.0210     1.4140 os         1 2DJ      -0.334900
     11 CAA          7.9250    -2.4410     0.6620 c3         1 2DJ       0.135700
     12 CAP          4.6620    -1.1340     1.5480 ca         1 2DJ      -0.127000
     13 CBA          3.5180    -0.6210     0.9230 ca         1 2DJ      -0.079800
     14 CAQ          2.2880    -0.1240     1.4130 cc         1 2DJ      -0.193200
     15 CAZ          1.5430     0.2550     0.3180 cd         1 2DJ      -0.100300
     16 CAV          0.2040     0.8520     0.3140 c          1 2DJ       0.736300
     17 OAF         -0.3910     1.2190    -0.6770 o          1 2DJ      -0.531100
     18 NAS         -0.3730     0.9690     1.5600 ns         1 2DJ      -0.651300
     19 SBE         -1.8920     1.6340     1.8040 sy         1 2DJ       1.330900
     20 OAG         -2.1020     1.4700     3.2310 o          1 2DJ      -0.610300
     21 OAH         -1.9370     2.9570     1.2190 o          1 2DJ      -0.610300
     22 CAY         -2.9880     0.5710     0.9290 ca         1 2DJ      -0.292500
     23 CAL         -3.5340     0.9740    -0.2820 ca         1 2DJ      -0.015500
     24 CAJ         -4.4120     0.1280    -0.9330 ca         1 2DJ      -0.155000
     25 CAX         -4.7570    -1.1200    -0.4080 ca         1 2DJ      -0.015300
     26 CBD         -5.7280    -2.0130    -1.1700 c3         1 2DJ      -0.006700
     27 CAC         -7.0530    -1.2640    -1.3690 c3         1 2DJ      -0.082100
     28 CAD         -5.1220    -2.3580    -2.5380 c3         1 2DJ      -0.082100
     29 CAB         -6.0220    -3.3180    -0.4290 c3         1 2DJ      -0.082100
     30 CAK         -4.1870    -1.4940     0.8080 ca         1 2DJ      -0.155000
     31 CAM         -3.3110    -0.6590     1.4820 ca         1 2DJ      -0.015500
     32 H2           0.8890     0.0380    -2.4250 h1         1 2DJ       0.049200
     33 H3           2.5650    -0.1380    -2.8600 h1         1 2DJ       0.049200
     34 H4           4.5110    -0.8620    -2.3520 ha         1 2DJ       0.138000
     35 H5           6.4840    -1.7420    -1.2610 ha         1 2DJ       0.118000
     36 H6           8.6640    -2.7930     1.3780 h1         1 2DJ       0.028033
     37 H7           7.6820    -3.2620    -0.0180 h1         1 2DJ       0.028033
     38 H8           8.3650    -1.6240     0.0820 h1         1 2DJ       0.028033
     39 H9           4.7160    -1.2160     2.6260 ha         1 2DJ       0.132000
     40 H10          2.0080    -0.0540     2.4520 ha         1 2DJ       0.135000
     41 H11          0.0700     0.6080     2.3950 hn         1 2DJ       0.345500
     42 H12         -3.2840     1.9330    -0.7140 ha         1 2DJ       0.158000
     43 H13         -4.8330     0.4570    -1.8750 ha         1 2DJ       0.131000
     44 H14         -6.9270    -0.3460    -1.9460 hc         1 2DJ       0.035367
     45 H15         -7.7600    -1.8960    -1.9090 hc         1 2DJ       0.035367
     46 H16         -7.5030    -0.9960    -0.4120 hc         1 2DJ       0.035367
     47 H17         -4.1850    -2.9060    -2.4270 hc         1 2DJ       0.035367
     48 H18         -5.8140    -2.9860    -3.1030 hc         1 2DJ       0.035367
     49 H19         -4.9200    -1.4690    -3.1360 hc         1 2DJ       0.035367
     50 H20         -6.4660    -3.1430     0.5520 hc         1 2DJ       0.035367
     51 H21         -6.7300    -3.9120    -1.0080 hc         1 2DJ       0.035367
     52 H22         -5.1250    -3.9250    -0.2930 hc         1 2DJ       0.035367
     53 H23         -4.4240    -2.4500     1.2540 ha         1 2DJ       0.131000
     54 H24         -2.8910    -0.9750     2.4280 ha         1 2DJ       0.158000
@<TRIPOS>BOND
     1     1     2 1   
     2     2     3 1   
     3     2     4 1   
     4     4     5 1   
     5     4    32 1   
     6     4    33 1   
     7     5     6 1   
     8     5    15 1   
     9     6     7 ar  
    10     6    13 ar  
    11     7     8 ar  
    12     7    34 1   
    13     8     9 ar  
    14     8    35 1   
    15     9    10 1   
    16     9    12 ar  
    17    10    11 1   
    18    11    36 1   
    19    11    37 1   
    20    11    38 1   
    21    12    13 ar  
    22    12    39 1   
    23    13    14 1   
    24    14    15 2   
    25    14    40 1   
    26    15    16 1   
    27    16    17 2   
    28    16    18 1   
    29    18    19 1   
    30    18    41 1   
    31    19    20 2   
    32    19    21 2   
    33    19    22 1   
    34    22    23 ar  
    35    22    31 ar  
    36    23    24 ar  
    37    23    42 1   
    38    24    25 ar  
    39    24    43 1   
    40    25    26 1   
    41    25    30 ar  
    42    26    27 1   
    43    26    28 1   
    44    26    29 1   
    45    27    44 1   
    46    27    45 1   
    47    27    46 1   
    48    28    47 1   
    49    28    48 1   
    50    28    49 1   
    51    29    50 1   
    52    29    51 1   
    53    29    52 1   
    54    30    31 ar  
    55    30    53 1   
    56    31    54 1   
@<TRIPOS>SUBSTRUCTURE
     1 2DJ         1 TEMP              0 ****  ****    0 ROOT
