@<TRIPOS>MOLECULE
2DJ
   54    56     1     0     0
SMALL
No Charge or Current Charge


@<TRIPOS>ATOM
      1 OXT          2.4180     2.9670    -2.2740 o          1 2DJ      -0.705000
      2 C            2.7880     1.9210    -2.7880 c          1 2DJ       0.723000
      3 O            3.6820     1.8560    -3.6200 o          1 2DJ      -0.705000
      4 CA           2.0920     0.6170    -2.3760 c3         1 2DJ      -0.098400
      5 N            2.3400     0.2570    -0.9670 na         1 2DJ       0.028300
      6 CBB          3.5170    -0.3430    -0.5300 ca         1 2DJ      -0.061200
      7 CAO          4.6480    -0.7150    -1.2770 ca         1 2DJ      -0.062000
      8 CAN          5.7330    -1.3160    -0.6010 ca         1 2DJ      -0.184000
      9 CAW          5.6740    -1.5340     0.8030 ca         1 2DJ       0.088100
     10 OAT          6.7090    -2.1170     1.5060 os         1 2DJ      -0.358100
     11 CAA          7.9240    -2.5470     0.8660 c3         1 2DJ       0.158900
     12 CAP          4.5240    -1.1480     1.5220 ca         1 2DJ      -0.109000
     13 CBA          3.4690    -0.5560     0.8180 ca         1 2DJ      -0.079800
     14 CAQ          2.2080    -0.0750     1.2860 cc         1 2DJ      -0.243200
     15 CAZ          1.5100     0.4260     0.1780 cd         1 2DJ      -0.100300
     16 CAV          0.1360     1.0250     0.2280 c          1 2DJ       0.669300
     17 OAF         -0.4630     1.4480    -0.7480 o          1 2DJ      -0.531100
     18 NAS         -0.4020     1.0480     1.4770 ns         1 2DJ      -0.584300
     19 SBE         -1.9170     1.5880     1.9210 sy         1 2DJ       1.189300
     20 OAG         -2.0080     1.3090     3.3580 o          1 2DJ      -0.539500
     21 OAH         -2.0440     2.9520     1.3960 o          1 2DJ      -0.539500
     22 CAY         -3.0690     0.5130     1.0440 ca         1 2DJ      -0.292500
     23 CAL         -3.6210     0.9110    -0.1870 ca         1 2DJ       0.002500
     24 CAJ         -4.5100     0.0620    -0.8670 ca         1 2DJ      -0.137000
     25 CAX         -4.8700    -1.2010    -0.3420 ca         1 2DJ      -0.015300
     26 CBD         -5.8550    -2.1060    -1.1320 c3         1 2DJ      -0.006700
     27 CAC         -7.2040    -1.3590    -1.3120 c3         1 2DJ      -0.082100
     28 CAD         -5.2520    -2.4230    -2.5280 c3         1 2DJ      -0.082100
     29 CAB         -6.1480    -3.4570    -0.4200 c3         1 2DJ      -0.082100
     30 CAK         -4.3010    -1.5860     0.8980 ca         1 2DJ      -0.137000
     31 CAM         -3.4110    -0.7400     1.5830 ca         1 2DJ       0.002500
     32 H2           1.0180     0.7240    -2.5590 h1         1 2DJ       0.049200
     33 H3           2.4530    -0.1950    -3.0190 h1         1 2DJ       0.049200
     34 H4           4.6960    -0.5480    -2.3500 ha         1 2DJ       0.120000
     35 H5           6.6060    -1.6030    -1.1790 ha         1 2DJ       0.100000
     36 H6           8.6090    -2.9800     1.6050 h1         1 2DJ       0.028033
     37 H7           7.7150    -3.3100     0.1060 h1         1 2DJ       0.028033
     38 H8           8.4320    -1.7000     0.3860 h1         1 2DJ       0.028033
     39 H9           4.4600    -1.3060     2.5950 ha         1 2DJ       0.114000
     40 H10          1.8650    -0.1020     2.3170 ha         1 2DJ       0.185000
     41 H11          0.1060     0.6680     2.2540 hn         1 2DJ       0.345500
     42 H12         -3.3630     1.8740    -0.6270 ha         1 2DJ       0.140000
     43 H13         -4.9170     0.3990    -1.8160 ha         1 2DJ       0.113000
     44 H14         -7.0840    -0.4380    -1.8930 hc         1 2DJ       0.035367
     45 H15         -7.9330    -1.9880    -1.8390 hc         1 2DJ       0.035367
     46 H16         -7.6300    -1.0910    -0.3380 hc         1 2DJ       0.035367
     47 H17         -4.2780    -2.9180    -2.4240 hc         1 2DJ       0.035367
     48 H18         -5.9110    -3.0900    -3.0980 hc         1 2DJ       0.035367
     49 H19         -5.1070    -1.5150    -3.1230 hc         1 2DJ       0.035367
     50 H20         -6.6010    -3.2940     0.5660 hc         1 2DJ       0.035367
     51 H21         -6.8470    -4.0650    -1.0070 hc         1 2DJ       0.035367
     52 H22         -5.2300    -4.0430    -0.2910 hc         1 2DJ       0.035367
     53 H23         -4.5330    -2.5420     1.3560 ha         1 2DJ       0.113000
     54 H24         -2.9910    -1.0690     2.5320 ha         1 2DJ       0.140000
@<TRIPOS>BOND
     1     1     2 1   
     2     2     3 1   
     3     2     4 1   
     4     4     5 1   
     5     4    32 1   
     6     4    33 1   
     7     5     6 1   
     8     5    15 1   
     9     6     7 ar  
    10     6    13 ar  
    11     7     8 ar  
    12     7    34 1   
    13     8     9 ar  
    14     8    35 1   
    15     9    10 1   
    16     9    12 ar  
    17    10    11 1   
    18    11    36 1   
    19    11    37 1   
    20    11    38 1   
    21    12    13 ar  
    22    12    39 1   
    23    13    14 1   
    24    14    15 2   
    25    14    40 1   
    26    15    16 1   
    27    16    17 2   
    28    16    18 1   
    29    18    19 1   
    30    18    41 1   
    31    19    20 2   
    32    19    21 2   
    33    19    22 1   
    34    22    23 ar  
    35    22    31 ar  
    36    23    24 ar  
    37    23    42 1   
    38    24    25 ar  
    39    24    43 1   
    40    25    26 1   
    41    25    30 ar  
    42    26    27 1   
    43    26    28 1   
    44    26    29 1   
    45    27    44 1   
    46    27    45 1   
    47    27    46 1   
    48    28    47 1   
    49    28    48 1   
    50    28    49 1   
    51    29    50 1   
    52    29    51 1   
    53    29    52 1   
    54    30    31 ar  
    55    30    53 1   
    56    31    54 1   
@<TRIPOS>SUBSTRUCTURE
     1 2DJ         1 TEMP              0 ****  ****    0 ROOT
