@<TRIPOS>MOLECULE
2DK
   45    47     1     0     0
SMALL
bcc


@<TRIPOS>ATOM
      1 OXT          0.8070    -3.8370     1.5460 o          1 2DK      -0.808800
      2 C            1.2540    -2.9040     0.8520 c          1 2DK       0.933600
      3 O            1.7280    -2.9560    -0.2920 o          1 2DK      -0.808800
      4 CA           1.2350    -1.5300     1.5560 c3         1 2DK      -0.124700
      5 N            1.6090    -0.4270     0.7040 na         1 2DK       0.059600
      6 CAX          2.8890     0.0150     0.5390 ca         1 2DK      -0.052200
      7 CAH          4.0760    -0.4130     1.1330 ca         1 2DK      -0.073000
      8 CAG          5.2490     0.2230     0.7850 ca         1 2DK      -0.201000
      9 CAU          5.2620     1.2830    -0.1480 ca         1 2DK       0.088100
     10 OAQ          6.3930     1.9330    -0.5150 os         1 2DK      -0.334900
     11 CAA          7.6300     1.4890    -0.0010 c3         1 2DK       0.135700
     12 CAI          4.0880     1.7110    -0.7380 ca         1 2DK      -0.128000
     13 CAW          2.8890     1.0750    -0.3930 ca         1 2DK      -0.082800
     14 CAJ          1.5430     1.2490    -0.8000 cc         1 2DK      -0.190200
     15 CAV          0.8010     0.3090    -0.1210 cd         1 2DK      -0.128300
     16 CAT         -0.6270     0.0240    -0.2950 c          1 2DK       0.726300
     17 OAC         -1.1390    -1.0590    -0.1050 o          1 2DK      -0.528100
     18 NAP         -1.3600     1.1050    -0.7210 ns         1 2DK      -0.675300
     19 SBA         -2.9330     0.9920    -1.3150 s6         1 2DK       1.466500
     20 OAD         -3.2210     2.3640    -1.6760 o          1 2DK      -0.622800
     21 OAE         -2.9810    -0.0530    -2.3110 o          1 2DK      -0.622800
     22 NAY         -3.9090     0.5700    -0.0890 n3         1 2DK      -0.782500
     23 CAM         -3.9580     1.4260     1.0950 c6         1 2DK       0.178800
     24 CAK         -5.3410     1.3080     1.7110 c6         1 2DK       0.127400
     25 OAR         -5.6760    -0.0310     1.9890 os         1 2DK      -0.400600
     26 CAL         -5.6470    -0.8200     0.8210 c6         1 2DK       0.127400
     27 CAN         -4.2710    -0.8210     0.1820 c6         1 2DK       0.178800
     28 H2           0.2570    -1.3420     1.9920 h1         1 2DK       0.044700
     29 H3           1.9360    -1.5520     2.3930 h1         1 2DK       0.044700
     30 H4           4.1000    -1.2290     1.8430 ha         1 2DK       0.143000
     31 H5           6.1670    -0.1160     1.2450 ha         1 2DK       0.119000
     32 H6           7.6860     1.5860     1.0870 h1         1 2DK       0.028367
     33 H7           7.8400     0.4510    -0.2710 h1         1 2DK       0.028367
     34 H8           8.3940     2.1240    -0.4430 h1         1 2DK       0.028367
     35 H9           4.1010     2.5220    -1.4560 ha         1 2DK       0.132000
     36 H10          1.1750     1.9490    -1.5340 ha         1 2DK       0.139000
     37 H11         -0.9440     2.0270    -0.7650 hn         1 2DK       0.346500
     38 H12         -3.1870     1.1270     1.8140 h1         1 2DK       0.073200
     39 H13         -3.7820     2.4660     0.8240 h1         1 2DK       0.073200
     40 H14         -5.3640     1.8570     2.6520 h1         1 2DK       0.049200
     41 H15         -6.0750     1.7610     1.0320 h1         1 2DK       0.049200
     42 H16         -5.9110    -1.8390     1.1070 h1         1 2DK       0.049200
     43 H17         -6.3890    -0.4660     0.0920 h1         1 2DK       0.049200
     44 H18         -4.3040    -1.3900    -0.7440 h1         1 2DK       0.073200
     45 H19         -3.5410    -1.2880     0.8480 h1         1 2DK       0.073200
@<TRIPOS>BOND
     1     1     2 1   
     2     2     3 1   
     3     2     4 1   
     4     4     5 1   
     5     4    28 1   
     6     4    29 1   
     7     5     6 1   
     8     5    15 1   
     9     6     7 ar  
    10     6    13 ar  
    11     7     8 ar  
    12     7    30 1   
    13     8     9 ar  
    14     8    31 1   
    15     9    10 1   
    16     9    12 ar  
    17    10    11 1   
    18    11    32 1   
    19    11    33 1   
    20    11    34 1   
    21    12    13 ar  
    22    12    35 1   
    23    13    14 1   
    24    14    15 2   
    25    14    36 1   
    26    15    16 1   
    27    16    17 2   
    28    16    18 1   
    29    18    19 1   
    30    18    37 1   
    31    19    20 2   
    32    19    21 2   
    33    19    22 1   
    34    22    23 1   
    35    22    27 1   
    36    23    24 1   
    37    23    38 1   
    38    23    39 1   
    39    24    25 1   
    40    24    40 1   
    41    24    41 1   
    42    25    26 1   
    43    26    27 1   
    44    26    42 1   
    45    26    43 1   
    46    27    44 1   
    47    27    45 1   
@<TRIPOS>SUBSTRUCTURE
     1 2DK         1 TEMP              0 ****  ****    0 ROOT
