@<TRIPOS>MOLECULE
2DK
   45    47     1     0     0
SMALL
No Charge or Current Charge


@<TRIPOS>ATOM
      1 OXT          1.9600    -3.9290    -0.1260 o          1 2DK      -0.703500
      2 C            2.5350    -3.4420     0.8380 c          1 2DK       0.723000
      3 O            3.6110    -3.8450     1.2560 o          1 2DK      -0.703500
      4 CA           1.8700    -2.2680     1.5700 c3         1 2DK      -0.095400
      5 N            1.8210    -1.0400     0.7520 na         1 2DK       0.030300
      6 CAX          2.9130    -0.1950     0.5820 ca         1 2DK      -0.052200
      7 CAH          4.2090    -0.3090     1.1150 ca         1 2DK      -0.055000
      8 CAG          5.1580     0.6870     0.7950 ca         1 2DK      -0.183000
      9 CAU          4.8010     1.7760    -0.0460 ca         1 2DK       0.088100
     10 OAQ          5.6940     2.7730    -0.3850 os         1 2DK      -0.358100
     11 CAA          7.0520     2.7800     0.0900 c3         1 2DK       0.158900
     12 CAI          3.4930     1.8600    -0.5640 ca         1 2DK      -0.110000
     13 CAW          2.5800     0.8540    -0.2250 ca         1 2DK      -0.082800
     14 CAJ          1.2120     0.6910    -0.6020 cc         1 2DK      -0.240200
     15 CAV          0.7440    -0.4820     0.0050 cd         1 2DK      -0.128300
     16 CAT         -0.6490    -1.0220    -0.1280 c          1 2DK       0.659300
     17 OAC         -1.0440    -2.0340     0.4270 o          1 2DK      -0.528100
     18 NAP         -1.4460    -0.2550    -0.9170 ns         1 2DK      -0.608300
     19 SBA         -3.0230    -0.4990    -1.3680 s6         1 2DK       1.324900
     20 OAD         -3.1810     0.1490    -2.6710 o          1 2DK      -0.552000
     21 OAE         -3.4430    -1.8830    -1.1430 o          1 2DK      -0.552000
     22 NAY         -3.8470     0.4920    -0.2380 n3         1 2DK      -0.782500
     23 CAM         -3.5900     0.1810     1.2040 c6         1 2DK       0.178800
     24 CAK         -4.3180     1.1820     2.1480 c6         1 2DK       0.150600
     25 OAR         -5.7320     1.2300     1.8440 os         1 2DK      -0.447000
     26 CAL         -5.9910     1.6220     0.4750 c6         1 2DK       0.150600
     27 CAN         -5.3100     0.6280    -0.5090 c6         1 2DK       0.178800
     28 H2           0.8610    -2.5690     1.8660 h1         1 2DK       0.044700
     29 H3           2.4310    -2.0610     2.4890 h1         1 2DK       0.044700
     30 H4           4.4840    -1.1420     1.7570 ha         1 2DK       0.125000
     31 H5           6.1590     0.5980     1.2070 ha         1 2DK       0.101000
     32 H6           7.0810     2.8210     1.1860 h1         1 2DK       0.028367
     33 H7           7.5870     1.8810    -0.2440 h1         1 2DK       0.028367
     34 H8           7.5860     3.6570    -0.2980 h1         1 2DK       0.028367
     35 H9           3.2020     2.6850    -1.2090 ha         1 2DK       0.114000
     36 H10          0.6490     1.3660    -1.2420 ha         1 2DK       0.189000
     37 H11         -1.0750     0.5700    -1.3450 hn         1 2DK       0.346500
     38 H12         -3.9270    -0.8380     1.4470 h1         1 2DK       0.073200
     39 H13         -2.5170     0.2280     1.4360 h1         1 2DK       0.073200
     40 H14         -4.1850     0.8730     3.1950 h1         1 2DK       0.049200
     41 H15         -3.8880     2.1860     2.0300 h1         1 2DK       0.049200
     42 H16         -7.0760     1.6360     0.3040 h1         1 2DK       0.049200
     43 H17         -5.6030     2.6380     0.3090 h1         1 2DK       0.049200
     44 H18         -5.4850     0.9870    -1.5340 h1         1 2DK       0.073200
     45 H19         -5.8130    -0.3470    -0.4220 h1         1 2DK       0.073200
@<TRIPOS>BOND
     1     1     2 1   
     2     2     3 1   
     3     2     4 1   
     4     4     5 1   
     5     4    28 1   
     6     4    29 1   
     7     5     6 1   
     8     5    15 1   
     9     6     7 ar  
    10     6    13 ar  
    11     7     8 ar  
    12     7    30 1   
    13     8     9 ar  
    14     8    31 1   
    15     9    10 1   
    16     9    12 ar  
    17    10    11 1   
    18    11    32 1   
    19    11    33 1   
    20    11    34 1   
    21    12    13 ar  
    22    12    35 1   
    23    13    14 1   
    24    14    15 2   
    25    14    36 1   
    26    15    16 1   
    27    16    17 2   
    28    16    18 1   
    29    18    19 1   
    30    18    37 1   
    31    19    20 2   
    32    19    21 2   
    33    19    22 1   
    34    22    23 1   
    35    22    27 1   
    36    23    24 1   
    37    23    38 1   
    38    23    39 1   
    39    24    25 1   
    40    24    40 1   
    41    24    41 1   
    42    25    26 1   
    43    26    27 1   
    44    26    42 1   
    45    26    43 1   
    46    27    44 1   
    47    27    45 1   
@<TRIPOS>SUBSTRUCTURE
     1 2DK         1 TEMP              0 ****  ****    0 ROOT
