@<TRIPOS>MOLECULE
2DL
   33    33     1     0     0
SMALL
No Charge or Current Charge


@<TRIPOS>ATOM
      1 C1          -2.7420     1.0100    -0.2950 ca         1 2DL       0.137100
      2 C2          -2.5480    -0.3430     0.0450 ca         1 2DL       0.038100
      3 C3          -1.2440    -0.8880     0.0140 ca         1 2DL      -0.111000
      4 C4          -0.1360    -0.0820    -0.3380 ca         1 2DL      -0.148600
      5 C5          -0.3580     1.2670    -0.7000 ca         1 2DL      -0.076000
      6 C6          -1.6530     1.8090    -0.6710 ca         1 2DL      -0.136000
      7 O7          -3.9990     1.5400    -0.2690 oh         1 2DL      -0.531100
      8 C9           4.5050    -1.0900     0.5240 c3         1 2DL      -0.111100
      9 C10          3.7170    -0.3490    -0.5760 c3         1 2DL       0.099000
     10 C12          2.3360     1.1010     0.9840 c3         1 2DL       0.099000
     11 C13          3.2690     2.3190     0.8320 c3         1 2DL      -0.111100
     12 C14          1.2500    -0.6980    -0.3920 c          1 2DL       0.616700
     13 O15          1.3880    -1.8680    -0.7300 o          1 2DL      -0.601100
     14 O16         -3.6600    -1.0920     0.3970 os         1 2DL      -0.369100
     15 N3           2.3740     0.1330    -0.1520 n          1 2DL      -0.404800
     16 C15         -3.5680    -2.4830     0.7600 c3         1 2DL       0.155900
     17 H6          -1.8140     2.8490    -0.9470 ha         1 2DL       0.133000
     18 H7          -4.5980     0.8130     0.0110 ho         1 2DL       0.484000
     19 H3          -1.0720    -1.9300     0.2700 ha         1 2DL       0.131000
     20 H5           0.4710     1.8950    -1.0200 ha         1 2DL       0.123000
     21 H91C         5.4560    -1.4600     0.1220 hc         1 2DL       0.040867
     22 H92C         4.7300    -0.4280     1.3680 hc         1 2DL       0.040867
     23 H93C         3.9340    -1.9480     0.8960 hc         1 2DL       0.040867
     24 H101         4.3090     0.5070    -0.9240 h1         1 2DL       0.051700
     25 H102         3.6090    -1.0150    -1.4420 h1         1 2DL       0.051700
     26 H121         2.6110     0.5640     1.9010 h1         1 2DL       0.051700
     27 H122         1.3180     1.4700     1.1450 h1         1 2DL       0.051700
     28 H131         4.3240     2.0210     0.8330 hc         1 2DL       0.040867
     29 H132         3.0560     2.8530    -0.1010 hc         1 2DL       0.040867
     30 H133         3.1180     3.0140     1.6660 hc         1 2DL       0.040867
     31 H151        -3.1580    -3.0760    -0.0670 h1         1 2DL       0.044033
     32 H152        -2.9270    -2.6160     1.6410 h1         1 2DL       0.044033
     33 H153        -4.5620    -2.8790     1.0020 h1         1 2DL       0.044033
@<TRIPOS>BOND
     1     1     2 ar  
     2     1     6 ar  
     3     1     7 1   
     4     2     3 ar  
     5     2    14 1   
     6     3     4 ar  
     7     3    19 1   
     8     4     5 ar  
     9     4    12 1   
    10     5     6 ar  
    11     5    20 1   
    12     6    17 1   
    13     7    18 1   
    14     8     9 1   
    15     8    21 1   
    16     8    22 1   
    17     8    23 1   
    18     9    15 1   
    19     9    24 1   
    20     9    25 1   
    21    10    11 1   
    22    10    15 1   
    23    10    26 1   
    24    10    27 1   
    25    11    28 1   
    26    11    29 1   
    27    11    30 1   
    28    12    13 2   
    29    12    15 1   
    30    14    16 1   
    31    16    31 1   
    32    16    32 1   
    33    16    33 1   
@<TRIPOS>SUBSTRUCTURE
     1 2DL         1 TEMP              0 ****  ****    0 ROOT
