@<TRIPOS>MOLECULE
2DL
   33    33     1     0     0
SMALL
bcc


@<TRIPOS>ATOM
      1 C1          -2.6270     1.0070    -0.2310 ca         1 2DL       0.137100
      2 C2          -2.3230    -0.3240     0.1070 ca         1 2DL       0.038100
      3 C3          -1.0270    -0.7880    -0.0190 ca         1 2DL      -0.129000
      4 C4          -0.0060     0.0680    -0.4410 ca         1 2DL      -0.148600
      5 C5          -0.3120     1.3780    -0.7760 ca         1 2DL      -0.094000
      6 C6          -1.6180     1.8420    -0.6770 ca         1 2DL      -0.154000
      7 O7          -3.8810     1.4830    -0.1340 oh         1 2DL      -0.492100
      8 C9           4.0800    -1.5850     0.6470 c3         1 2DL      -0.111100
      9 C10          3.7430    -0.4440    -0.3020 c3         1 2DL       0.099000
     10 C12          2.3260     1.1310     0.9620 c3         1 2DL       0.099000
     11 C13          2.8440     2.4950     0.5340 c3         1 2DL      -0.111100
     12 C14          1.3570    -0.5150    -0.6310 c          1 2DL       0.683700
     13 O15          1.4800    -1.5410    -1.2910 o          1 2DL      -0.601100
     14 O16         -3.3780    -1.0510     0.5320 os         1 2DL      -0.345900
     15 N3           2.4150     0.1150    -0.0780 n          1 2DL      -0.471800
     16 C15         -3.1760    -2.4120     0.8580 c3         1 2DL       0.132700
     17 H6          -1.8580     2.8610    -0.9520 ha         1 2DL       0.151000
     18 H7          -4.4790     0.7880     0.1710 ho         1 2DL       0.445000
     19 H3          -0.7870    -1.8150     0.2260 ha         1 2DL       0.149000
     20 H5           0.4570     2.0490    -1.1360 ha         1 2DL       0.141000
     21 H91C         5.0930    -1.9420     0.4580 hc         1 2DL       0.040867
     22 H92C         4.0330    -1.2660     1.6890 hc         1 2DL       0.040867
     23 H93C         3.3970    -2.4230     0.5140 hc         1 2DL       0.040867
     24 H101         4.4660     0.3630    -0.1800 h1         1 2DL       0.051700
     25 H102         3.8220    -0.7750    -1.3360 h1         1 2DL       0.051700
     26 H121         2.9000     0.7800     1.8250 h1         1 2DL       0.051700
     27 H122         1.2960     1.2110     1.3020 h1         1 2DL       0.051700
     28 H131         3.8900     2.4560     0.2290 hc         1 2DL       0.040867
     29 H132         2.2690     2.9030    -0.2960 hc         1 2DL       0.040867
     30 H133         2.7720     3.1930     1.3680 hc         1 2DL       0.040867
     31 H151        -2.8230    -2.9860    -0.0020 h1         1 2DL       0.044033
     32 H152        -2.4660    -2.5310     1.6800 h1         1 2DL       0.044033
     33 H153        -4.1420    -2.8030     1.1680 h1         1 2DL       0.044033
@<TRIPOS>BOND
     1     1     2 ar  
     2     1     6 ar  
     3     1     7 1   
     4     2     3 ar  
     5     2    14 1   
     6     3     4 ar  
     7     3    19 1   
     8     4     5 ar  
     9     4    12 1   
    10     5     6 ar  
    11     5    20 1   
    12     6    17 1   
    13     7    18 1   
    14     8     9 1   
    15     8    21 1   
    16     8    22 1   
    17     8    23 1   
    18     9    15 1   
    19     9    24 1   
    20     9    25 1   
    21    10    11 1   
    22    10    15 1   
    23    10    26 1   
    24    10    27 1   
    25    11    28 1   
    26    11    29 1   
    27    11    30 1   
    28    12    13 2   
    29    12    15 1   
    30    14    16 1   
    31    16    31 1   
    32    16    32 1   
    33    16    33 1   
@<TRIPOS>SUBSTRUCTURE
     1 2DL         1 TEMP              0 ****  ****    0 ROOT
