@<TRIPOS>MOLECULE
2DN
   44    46     1     0     0
SMALL
abcg2


@<TRIPOS>ATOM
      1 OXT          2.2560   -14.9760    39.8180 o          1 2DN      -0.706000
      2 C            1.4910   -14.0730    39.3990 c          1 2DN       0.711000
      3 O            0.2840   -14.1760    39.0870 o          1 2DN      -0.706000
      4 CA           2.1720   -12.6860    39.2720 c3         1 2DN      -0.099400
      5 N            1.3060   -11.6160    38.8120 na         1 2DN       0.026300
      6 CBB          0.6170   -10.7800    39.6560 ca         1 2DN      -0.056200
      7 CAJ          0.6710   -10.6590    41.0510 ca         1 2DN      -0.061000
      8 CAI         -0.1310    -9.7120    41.6450 ca         1 2DN      -0.133000
      9 CAW         -0.9920    -8.8790    40.8860 ca         1 2DN       0.091100
     10 OAR         -1.7170    -7.9910    41.6270 os         1 2DN      -0.361100
     11 CAA         -2.5900    -7.1040    40.9350 c3         1 2DN       0.153900
     12 CAK         -1.0620    -8.9950    39.5120 ca         1 2DN      -0.155000
     13 CBA         -0.2540    -9.9670    38.8860 ca         1 2DN      -0.083800
     14 CAL         -0.0890   -10.3670    37.5380 cc         1 2DN      -0.226200
     15 CAY          0.8580   -11.3830    37.5200 cd         1 2DN      -0.118300
     16 CAV          1.3700   -12.1160    36.3710 c          1 2DN       0.678300
     17 OAE          2.3420   -12.8530    36.3730 o          1 2DN      -0.544100
     18 NAQ          0.6490   -11.9160    35.1860 ns         1 2DN      -0.583300
     19 SBD          1.1600   -12.4620    33.7120 sy         1 2DN       1.178900
     20 OAF          0.2520   -11.8690    32.7700 o          1 2DN      -0.529000
     21 OAG          1.3520   -13.8830    33.7380 o          1 2DN      -0.529000
     22 CAZ          2.7660   -11.7520    33.5090 cc         1 2DN       0.107300
     23 SAS          4.2120   -12.7050    33.4610 ss         1 2DN       0.026200
     24 NAO          2.9360   -10.4740    33.3910 nd         1 2DN      -0.210000
     25 NAN          4.2390   -10.1350    33.2470 nd         1 2DN      -0.415000
     26 CAX          5.0270   -11.1900    33.2610 cc         1 2DN       0.492300
     27 NAP          6.3790   -11.0640    33.1290 ns         1 2DN      -0.473400
     28 CAT          7.2580   -12.1270    33.1430 c          1 2DN       0.599100
     29 OAC          6.8410   -13.2670    33.2770 o          1 2DN      -0.554100
     30 CAB          8.7020   -11.7600    32.9830 c3         1 2DN      -0.169100
     31 H2           2.5590   -12.4050    40.2490 h1         1 2DN       0.057700
     32 H3           3.0180   -12.7810    38.5990 h1         1 2DN       0.057700
     33 H4           1.3160   -11.2830    41.6540 ha         1 2DN       0.128000
     34 H5          -0.1210    -9.5840    42.7200 ha         1 2DN       0.113000
     35 H6          -3.0560    -6.4840    41.6970 h1         1 2DN       0.031700
     36 H7          -2.0340    -6.4720    40.2360 h1         1 2DN       0.031700
     37 H8          -3.3600    -7.6550    40.3890 h1         1 2DN       0.031700
     38 H9          -1.7160    -8.3730    38.9180 ha         1 2DN       0.106000
     39 H10         -0.5890    -9.9360    36.6860 ha         1 2DN       0.185000
     40 H11         -0.0990   -11.2370    35.1370 hn         1 2DN       0.351500
     41 H12          6.7310   -10.1210    33.0190 hn         1 2DN       0.341500
     42 H13          9.3100   -12.6600    33.0260 hc         1 2DN       0.070367
     43 H14          8.8540   -11.2560    32.0260 hc         1 2DN       0.070367
     44 H15          9.0030   -11.0700    33.7740 hc         1 2DN       0.070367
@<TRIPOS>BOND
     1     1     2 1   
     2     2     3 1   
     3     2     4 1   
     4     4     5 1   
     5     4    31 1   
     6     4    32 1   
     7     5     6 1   
     8     5    15 1   
     9     6     7 ar  
    10     6    13 ar  
    11     7     8 ar  
    12     7    33 1   
    13     8     9 ar  
    14     8    34 1   
    15     9    10 1   
    16     9    12 ar  
    17    10    11 1   
    18    11    35 1   
    19    11    36 1   
    20    11    37 1   
    21    12    13 ar  
    22    12    38 1   
    23    13    14 1   
    24    14    15 2   
    25    14    39 1   
    26    15    16 1   
    27    16    17 2   
    28    16    18 1   
    29    18    19 1   
    30    18    40 1   
    31    19    20 2   
    32    19    21 2   
    33    19    22 1   
    34    22    23 1   
    35    22    24 2   
    36    23    26 1   
    37    24    25 1   
    38    25    26 2   
    39    26    27 1   
    40    27    28 1   
    41    27    41 1   
    42    28    29 2   
    43    28    30 1   
    44    30    42 1   
    45    30    43 1   
    46    30    44 1   
@<TRIPOS>SUBSTRUCTURE
     1 2DN         1 TEMP              0 ****  ****    0 ROOT
