@<TRIPOS>MOLECULE
2DN
   44    46     1     0     0
SMALL
No Charge or Current Charge


@<TRIPOS>ATOM
      1 OXT          1.9280   -14.0430    41.0900 o          1 2DN      -0.706000
      2 C            1.7890   -13.8510    39.8900 c          1 2DN       0.711000
      3 O            1.2160   -14.6310    39.1430 o          1 2DN      -0.706000
      4 CA           2.3760   -12.5650    39.2940 c3         1 2DN      -0.099400
      5 N            1.3380   -11.6310    38.8170 na         1 2DN       0.026300
      6 CBB          0.6070   -10.8050    39.6660 ca         1 2DN      -0.056200
      7 CAJ          0.6910   -10.6810    41.0630 ca         1 2DN      -0.061000
      8 CAI         -0.1680    -9.7630    41.7050 ca         1 2DN      -0.133000
      9 CAW         -1.0880    -8.9900    40.9590 ca         1 2DN       0.091100
     10 OAR         -1.8990    -8.1110    41.6480 os         1 2DN      -0.361100
     11 CAA         -2.8670    -7.2810    40.9820 c3         1 2DN       0.153900
     12 CAK         -1.1510    -9.1370    39.5510 ca         1 2DN      -0.155000
     13 CBA         -0.2830   -10.0570    38.9500 ca         1 2DN      -0.083800
     14 CAL         -0.1300   -10.4050    37.5730 cc         1 2DN      -0.226200
     15 CAY          0.8750   -11.3780    37.4930 cd         1 2DN      -0.118300
     16 CAV          1.3540   -12.0160    36.2250 c          1 2DN       0.678300
     17 OAE          2.2400   -12.8520    36.1670 o          1 2DN      -0.544100
     18 NAQ          0.7170   -11.5660    35.1120 ns         1 2DN      -0.583300
     19 SBD          0.9930   -12.0260    33.5220 sy         1 2DN       1.178900
     20 OAF          0.1260   -11.1610    32.7100 o          1 2DN      -0.529000
     21 OAG          0.9080   -13.4920    33.4650 o          1 2DN      -0.529000
     22 CAZ          2.7220   -11.5010    33.3630 cc         1 2DN       0.107300
     23 SAS          4.0140   -12.6630    33.2800 ss         1 2DN       0.026200
     24 NAO          3.1110   -10.2300    33.3010 nd         1 2DN      -0.210000
     25 NAN          4.4850   -10.1150    33.1920 nd         1 2DN      -0.415000
     26 CAX          5.0880   -11.2920    33.1720 cc         1 2DN       0.492300
     27 NAP          6.4600   -11.3250    33.0690 ns         1 2DN      -0.473400
     28 CAT          7.2930   -12.4140    33.0250 c          1 2DN       0.599100
     29 OAC          6.8990   -13.5680    33.0720 o          1 2DN      -0.554100
     30 CAB          8.7720   -12.0730    32.9100 c3         1 2DN      -0.169100
     31 H2           2.9800   -12.0660    40.0600 h1         1 2DN       0.057700
     32 H3           3.0480   -12.8390    38.4760 h1         1 2DN       0.057700
     33 H4           1.3950   -11.2720    41.6430 ha         1 2DN       0.128000
     34 H5          -0.1220    -9.6490    42.7840 ha         1 2DN       0.113000
     35 H6          -3.4020    -6.6600    41.7110 h1         1 2DN       0.031700
     36 H7          -2.3770    -6.6130    40.2610 h1         1 2DN       0.031700
     37 H8          -3.6050    -7.8940    40.4490 h1         1 2DN       0.031700
     38 H9          -1.8410    -8.5650    38.9380 ha         1 2DN       0.106000
     39 H10         -0.6980    -9.9830    36.7490 ha         1 2DN       0.185000
     40 H11          0.0160   -10.8520    35.1820 hn         1 2DN       0.351500
     41 H12          6.9240   -10.4290    33.0180 hn         1 2DN       0.341500
     42 H13          9.4080   -12.9650    32.8770 hc         1 2DN       0.070367
     43 H14          8.9250   -11.4350    32.0320 hc         1 2DN       0.070367
     44 H15          9.0510   -11.4080    33.7350 hc         1 2DN       0.070367
@<TRIPOS>BOND
     1     1     2 1   
     2     2     3 1   
     3     2     4 1   
     4     4     5 1   
     5     4    31 1   
     6     4    32 1   
     7     5     6 1   
     8     5    15 1   
     9     6     7 ar  
    10     6    13 ar  
    11     7     8 ar  
    12     7    33 1   
    13     8     9 ar  
    14     8    34 1   
    15     9    10 1   
    16     9    12 ar  
    17    10    11 1   
    18    11    35 1   
    19    11    36 1   
    20    11    37 1   
    21    12    13 ar  
    22    12    38 1   
    23    13    14 1   
    24    14    15 2   
    25    14    39 1   
    26    15    16 1   
    27    16    17 2   
    28    16    18 1   
    29    18    19 1   
    30    18    40 1   
    31    19    20 2   
    32    19    21 2   
    33    19    22 1   
    34    22    23 1   
    35    22    24 2   
    36    23    26 1   
    37    24    25 1   
    38    25    26 2   
    39    26    27 1   
    40    27    28 1   
    41    27    41 1   
    42    28    29 2   
    43    28    30 1   
    44    30    42 1   
    45    30    43 1   
    46    30    44 1   
@<TRIPOS>SUBSTRUCTURE
     1 2DN         1 TEMP              0 ****  ****    0 ROOT
