@<TRIPOS>MOLECULE
2DO
   24    23     1     0     0
SMALL
bcc


@<TRIPOS>ATOM
      1 N           18.0860    24.8770    18.3870 n8         1 2DO      -0.858800
      2 CA          17.4000    23.8800    19.1940 c3         1 2DO       0.144500
      3 C           15.9030    23.8780    18.8800 c3         1 2DO       0.359900
      4 CB          17.6170    24.0220    20.7060 c3         1 2DO      -0.119400
      5 CG          19.0790    23.9700    21.1410 c3         1 2DO      -0.072400
      6 CD          19.8360    22.7050    20.7390 c3         1 2DO      -0.077400
      7 CE          19.2120    21.4190    21.2620 c3         1 2DO      -0.089100
      8 O           15.3160    25.1370    19.1280 oh         1 2DO      -0.593800
      9 OXT         15.7270    23.5760    17.5380 oh         1 2DO      -0.593800
     10 H           19.0870    24.7650    18.4830 hn         1 2DO       0.339800
     11 H2          17.8740    25.8030    18.7390 hn         1 2DO       0.339800
     12 HCA         17.7770    22.8970    18.8890 h1         1 2DO       0.072700
     13 HC          15.4230    23.1210    19.5210 h2         1 2DO      -0.000300
     14 HB2         17.0510    23.2410    21.2240 hc         1 2DO       0.040200
     15 HB3         17.1930    24.9740    21.0420 hc         1 2DO       0.040200
     16 HG2         19.1180    24.0730    22.2300 hc         1 2DO       0.038200
     17 HG3         19.6080    24.8420    20.7460 hc         1 2DO       0.038200
     18 HD2         20.8610    22.7850    21.1120 hc         1 2DO       0.040200
     19 HD3         19.9250    22.6500    19.6490 hc         1 2DO       0.040200
     20 HE1         19.0950    21.4510    22.3470 hc         1 2DO       0.032033
     21 HE2         19.8340    20.5550    21.0230 hc         1 2DO       0.032033
     22 HE3         18.2260    21.2380    20.8320 hc         1 2DO       0.032033
     23 HO          15.0260    25.1710    20.0450 ho         1 2DO       0.407500
     24 HXT         14.7890    23.4280    17.3780 ho         1 2DO       0.407500
@<TRIPOS>BOND
     1     1     2 1   
     2     1    10 1   
     3     1    11 1   
     4     2     3 1   
     5     2     4 1   
     6     2    12 1   
     7     3     8 1   
     8     3     9 1   
     9     3    13 1   
    10     4     5 1   
    11     4    14 1   
    12     4    15 1   
    13     5     6 1   
    14     5    16 1   
    15     5    17 1   
    16     6     7 1   
    17     6    18 1   
    18     6    19 1   
    19     7    20 1   
    20     7    21 1   
    21     7    22 1   
    22     8    23 1   
    23     9    24 1   
@<TRIPOS>SUBSTRUCTURE
     1 2DO         1 TEMP              0 ****  ****    0 ROOT
