@<TRIPOS>MOLECULE
2DQ
   46    48     1     0     0
SMALL
bcc


@<TRIPOS>ATOM
      1 OXT          1.5350    -4.1830     1.4970 o          1 2DQ      -0.811300
      2 C            1.6240    -3.1630     0.7900 c          1 2DQ       0.931600
      3 O            1.4910    -3.0670    -0.4400 o          1 2DQ      -0.811300
      4 CA           1.9460    -1.8740     1.5830 c3         1 2DQ      -0.132700
      5 N            2.0170    -0.6810     0.7710 na         1 2DQ       0.046600
      6 CBA          3.1400     0.0770     0.5750 ca         1 2DQ      -0.072200
      7 CAM          4.3890     0.0220     1.1880 ca         1 2DQ      -0.086000
      8 CAL          5.3510     0.9350     0.8040 ca         1 2DQ      -0.206000
      9 CAW          5.0860     1.9070    -0.1830 ca         1 2DQ       0.088100
     10 OAS          5.9980     2.8240    -0.5870 os         1 2DQ      -0.334900
     11 CAB          7.2730     2.8290     0.0180 c3         1 2DQ       0.135700
     12 CAN          3.8480     1.9620    -0.7970 ca         1 2DQ      -0.129000
     13 CAZ          2.8660     1.0380    -0.4240 ca         1 2DQ      -0.071800
     14 CAO          1.5300     0.8090    -0.8470 cc         1 2DQ      -0.213200
     15 CAY          1.0600    -0.2460    -0.1040 cd         1 2DQ      -0.074300
     16 CAU         -0.2910    -0.8220    -0.1230 c          1 2DQ       0.760300
     17 OAD         -0.8490    -1.2890     0.8460 o          1 2DQ      -0.555100
     18 NAQ         -0.9200    -0.7190    -1.3400 ns         1 2DQ      -0.638300
     19 SBC         -2.5120    -1.1870    -1.5930 sy         1 2DQ       1.337900
     20 OAE         -2.7560    -0.8040    -2.9720 o          1 2DQ      -0.607300
     21 OAF         -2.6820    -2.5680    -1.1930 o          1 2DQ      -0.607300
     22 CAX         -3.4420    -0.1570    -0.5210 ca         1 2DQ      -0.333500
     23 CAJ         -3.9600    -0.6670     0.6660 ca         1 2DQ       0.023000
     24 CAH         -4.7050     0.1520     1.4860 ca         1 2DQ      -0.222000
     25 CAV         -4.9360     1.4870     1.1330 ca         1 2DQ       0.187100
     26 OAR         -5.6690     2.2010     1.9900 os         1 2DQ      -0.316900
     27 CAA         -5.9590     3.5550     1.6840 c3         1 2DQ       0.126700
     28 CAI         -4.4100     1.9890    -0.0590 ca         1 2DQ      -0.222000
     29 CAK         -3.6670     1.1630    -0.8840 ca         1 2DQ       0.023000
     30 H2           1.2120    -1.7470     2.3790 h1         1 2DQ       0.052700
     31 H3           2.9120    -1.9990     2.0720 h1         1 2DQ       0.052700
     32 H4           4.6210    -0.7100     1.9500 ha         1 2DQ       0.135000
     33 H5           6.3190     0.8880     1.2840 ha         1 2DQ       0.118000
     34 H6           7.8330     3.6360    -0.4480 h1         1 2DQ       0.028367
     35 H7           7.2190     3.0200     1.0940 h1         1 2DQ       0.028367
     36 H8           7.8130     1.8920    -0.1430 h1         1 2DQ       0.028367
     37 H9           3.6500     2.7080    -1.5560 ha         1 2DQ       0.132000
     38 H10          0.9750     1.3790    -1.5760 ha         1 2DQ       0.138000
     39 H11         -0.4200    -0.3990    -2.1610 hn         1 2DQ       0.353500
     40 H12         -3.7900    -1.6950     0.9510 ha         1 2DQ       0.160000
     41 H13         -5.1180    -0.2340     2.4090 ha         1 2DQ       0.139000
     42 H14         -6.5770     3.9260     2.4970 h1         1 2DQ       0.040367
     43 H15         -5.0510     4.1600     1.6250 h1         1 2DQ       0.040367
     44 H16         -6.5130     3.6470     0.7470 h1         1 2DQ       0.040367
     45 H17         -4.5720     3.0140    -0.3630 ha         1 2DQ       0.139000
     46 H18         -3.2720     1.5650    -1.8070 ha         1 2DQ       0.160000
@<TRIPOS>BOND
     1     1     2 1   
     2     2     3 1   
     3     2     4 1   
     4     4     5 1   
     5     4    30 1   
     6     4    31 1   
     7     5     6 1   
     8     5    15 1   
     9     6     7 ar  
    10     6    13 ar  
    11     7     8 ar  
    12     7    32 1   
    13     8     9 ar  
    14     8    33 1   
    15     9    10 1   
    16     9    12 ar  
    17    10    11 1   
    18    11    34 1   
    19    11    35 1   
    20    11    36 1   
    21    12    13 ar  
    22    12    37 1   
    23    13    14 1   
    24    14    15 2   
    25    14    38 1   
    26    15    16 1   
    27    16    17 2   
    28    16    18 1   
    29    18    19 1   
    30    18    39 1   
    31    19    20 2   
    32    19    21 2   
    33    19    22 1   
    34    22    23 ar  
    35    22    29 ar  
    36    23    24 ar  
    37    23    40 1   
    38    24    25 ar  
    39    24    41 1   
    40    25    26 1   
    41    25    28 ar  
    42    26    27 1   
    43    27    42 1   
    44    27    43 1   
    45    27    44 1   
    46    28    29 ar  
    47    28    45 1   
    48    29    46 1   
@<TRIPOS>SUBSTRUCTURE
     1 2DQ         1 TEMP              0 ****  ****    0 ROOT
