@<TRIPOS>MOLECULE
2DQ
   46    48     1     0     0
SMALL
No Charge or Current Charge


@<TRIPOS>ATOM
      1 OXT          1.9310    -3.5830     1.0010 o          1 2DQ      -0.706000
      2 C            2.3810    -2.8240     1.8470 c          1 2DQ       0.721000
      3 O            3.3070    -3.1140     2.5910 o          1 2DQ      -0.706000
      4 CA           1.7500    -1.4320     1.9910 c3         1 2DQ      -0.103400
      5 N            1.9420    -0.5890     0.7940 na         1 2DQ       0.017300
      6 CBA          3.1300     0.0820     0.5180 ca         1 2DQ      -0.072200
      7 CAM          4.3210     0.1110     1.2640 ca         1 2DQ      -0.068000
      8 CAL          5.4030     0.8730     0.7720 ca         1 2DQ      -0.188000
      9 CAW          5.2820     1.5900    -0.4490 ca         1 2DQ       0.088100
     10 OAS          6.3130     2.3470    -0.9690 os         1 2DQ      -0.358100
     11 CAB          7.5860     2.4650    -0.3080 c3         1 2DQ       0.158900
     12 CAN          4.0740     1.5380    -1.1730 ca         1 2DQ      -0.111000
     13 CAZ          3.0230     0.7730    -0.6550 ca         1 2DQ      -0.071800
     14 CAO          1.7100     0.5460    -1.1710 cc         1 2DQ      -0.263200
     15 CAY          1.0420    -0.2970    -0.2710 cd         1 2DQ      -0.074300
     16 CAU         -0.3690    -0.7830    -0.4320 c          1 2DQ       0.693300
     17 OAD         -0.9420    -1.5060     0.3690 o          1 2DQ      -0.555100
     18 NAQ         -0.9740    -0.3320    -1.5620 ns         1 2DQ      -0.571300
     19 SBC         -2.5360    -0.6240    -2.0640 sy         1 2DQ       1.196300
     20 OAE         -2.6870     0.1500    -3.3000 o          1 2DQ      -0.536500
     21 OAF         -2.7180    -2.0800    -2.0450 o          1 2DQ      -0.536500
     22 CAX         -3.5760     0.1090    -0.7920 ca         1 2DQ      -0.333500
     23 CAJ         -4.0770    -0.6850     0.2590 ca         1 2DQ       0.041000
     24 CAH         -4.8810    -0.1000     1.2510 ca         1 2DQ      -0.204000
     25 CAV         -5.1900     1.2670     1.2060 ca         1 2DQ       0.187100
     26 OAR         -5.9850     1.7800     2.2110 os         1 2DQ      -0.340100
     27 CAA         -6.3590     3.1680     2.2590 c3         1 2DQ       0.149900
     28 CAI         -4.6860     2.0610     0.1550 ca         1 2DQ      -0.204000
     29 CAK         -3.8800     1.4840    -0.8410 ca         1 2DQ       0.041000
     30 H2           0.6840    -1.5560     2.2020 h1         1 2DQ       0.052700
     31 H3           2.1990    -0.9300     2.8560 h1         1 2DQ       0.052700
     32 H4           4.4150    -0.4380     2.1970 ha         1 2DQ       0.117000
     33 H5           6.3230     0.8940     1.3490 ha         1 2DQ       0.100000
     34 H6           8.2570     3.1100    -0.8890 h1         1 2DQ       0.028367
     35 H7           7.4680     2.9060     0.6890 h1         1 2DQ       0.028367
     36 H8           8.0640     1.4820    -0.2060 h1         1 2DQ       0.028367
     37 H9           3.9620     2.0790    -2.1090 ha         1 2DQ       0.114000
     38 H10          1.3150     0.9610    -2.0940 ha         1 2DQ       0.188000
     39 H11         -0.4860     0.2800    -2.1880 hn         1 2DQ       0.353500
     40 H12         -3.8440    -1.7480     0.3170 ha         1 2DQ       0.142000
     41 H13         -5.2670    -0.7120     2.0620 ha         1 2DQ       0.121000
     42 H14         -6.9900     3.3610     3.1350 h1         1 2DQ       0.040367
     43 H15         -5.4710     3.8090     2.3310 h1         1 2DQ       0.040367
     44 H16         -6.9260     3.4510     1.3630 h1         1 2DQ       0.040367
     45 H17         -4.9050     3.1220     0.0930 ha         1 2DQ       0.121000
     46 H18         -3.4950     2.1100    -1.6460 ha         1 2DQ       0.142000
@<TRIPOS>BOND
     1     1     2 1   
     2     2     3 1   
     3     2     4 1   
     4     4     5 1   
     5     4    30 1   
     6     4    31 1   
     7     5     6 1   
     8     5    15 1   
     9     6     7 ar  
    10     6    13 ar  
    11     7     8 ar  
    12     7    32 1   
    13     8     9 ar  
    14     8    33 1   
    15     9    10 1   
    16     9    12 ar  
    17    10    11 1   
    18    11    34 1   
    19    11    35 1   
    20    11    36 1   
    21    12    13 ar  
    22    12    37 1   
    23    13    14 1   
    24    14    15 2   
    25    14    38 1   
    26    15    16 1   
    27    16    17 2   
    28    16    18 1   
    29    18    19 1   
    30    18    39 1   
    31    19    20 2   
    32    19    21 2   
    33    19    22 1   
    34    22    23 ar  
    35    22    29 ar  
    36    23    24 ar  
    37    23    40 1   
    38    24    25 ar  
    39    24    41 1   
    40    25    26 1   
    41    25    28 ar  
    42    26    27 1   
    43    27    42 1   
    44    27    43 1   
    45    27    44 1   
    46    28    29 ar  
    47    28    45 1   
    48    29    46 1   
@<TRIPOS>SUBSTRUCTURE
     1 2DQ         1 TEMP              0 ****  ****    0 ROOT
