@<TRIPOS>MOLECULE
2DR
   19    19     1     0     0
SMALL
No Charge or Current Charge


@<TRIPOS>ATOM
      1 C2           1.2880     0.7060    -0.7080 c5         1 2DR      -0.147400
      2 C3           0.1020     1.5530    -0.1710 c5         1 2DR       0.138300
      3 C4          -0.7740     0.4350     0.4760 c5         1 2DR       0.173300
      4 C5          -1.6320    -0.3830    -0.5450 c3         1 2DR       0.142600
      5 O1           1.3740    -1.7270    -0.3580 oh         1 2DR      -0.672000
      6 O3           0.5490     2.5330     0.7770 oh         1 2DR      -0.706000
      7 O4           0.2180    -0.3940     1.1360 os         1 2DR      -0.459000
      8 O5          -2.5280    -1.2900     0.1260 oh         1 2DR      -0.702000
      9 C1           1.3840    -0.4790     0.3020 c5         1 2DR       0.384300
     10 H21C         1.0830     0.3480    -1.7230 hc         1 2DR       0.068700
     11 H22C         2.2240     1.2720    -0.7620 hc         1 2DR       0.068700
     12 H3          -0.4350     2.0500    -0.9920 h1         1 2DR       0.049700
     13 H1           2.2830    -0.3890     0.9270 h2         1 2DR       0.053700
     14 H4          -1.4540     0.8590     1.2270 h1         1 2DR       0.099700
     15 HA           1.0430     3.2210     0.2730 ho         1 2DR       0.504000
     16 H51C        -2.2130     0.3280    -1.1470 h1         1 2DR       0.022200
     17 H52C        -0.9800    -0.9310    -1.2360 h1         1 2DR       0.022200
     18 H5          -3.0030    -1.7980    -0.5730 ho         1 2DR       0.501000
     19 HB           1.0490    -2.3560     0.3200 ho         1 2DR       0.458000
@<TRIPOS>BOND
     1     1     2 1   
     2     1     9 1   
     3     1    10 1   
     4     1    11 1   
     5     2     3 1   
     6     2     6 1   
     7     2    12 1   
     8     3     4 1   
     9     3     7 1   
    10     3    14 1   
    11     4     8 1   
    12     4    16 1   
    13     4    17 1   
    14     5     9 1   
    15     5    19 1   
    16     6    15 1   
    17     7     9 1   
    18     8    18 1   
    19     9    13 1   
@<TRIPOS>SUBSTRUCTURE
     1 2DR         1 TEMP              0 ****  ****    0 ROOT
