@<TRIPOS>MOLECULE
2DR
   19    19     1     0     0
SMALL
abcg2


@<TRIPOS>ATOM
      1 C2           1.2550     0.6290    -0.6980 c5         1 2DR      -0.147400
      2 C3           0.0800     1.4850    -0.2450 c5         1 2DR       0.138300
      3 C4          -0.8090     0.4400     0.4190 c5         1 2DR       0.173300
      4 C5          -1.7200    -0.2570    -0.5750 c3         1 2DR       0.142600
      5 O1           1.5300    -1.7040    -0.3020 oh         1 2DR      -0.672000
      6 O3           0.4450     2.4270     0.7400 oh         1 2DR      -0.706000
      7 O4           0.0990    -0.4530     1.0430 os         1 2DR      -0.459000
      8 O5          -2.4610    -1.2360     0.1110 oh         1 2DR      -0.702000
      9 C1           1.3270    -0.4880     0.3440 c5         1 2DR       0.384300
     10 H21C         1.0510     0.2020    -1.6820 hc         1 2DR       0.068700
     11 H22C         2.1870     1.1900    -0.7740 hc         1 2DR       0.068700
     12 H3          -0.4190     1.9720    -1.0920 h1         1 2DR       0.049700
     13 H1           2.1170    -0.3180     1.0840 h2         1 2DR       0.053700
     14 H4          -1.4270     0.8910     1.2030 h1         1 2DR       0.099700
     15 HA           1.1070     3.0130     0.3600 ho         1 2DR       0.504000
     16 H51C        -2.3720     0.5030    -1.0270 h1         1 2DR       0.022200
     17 H52C        -1.1290    -0.6930    -1.3910 h1         1 2DR       0.022200
     18 H5          -3.0380    -1.6720    -0.5220 ho         1 2DR       0.501000
     19 HB           1.7550    -2.3730     0.3530 ho         1 2DR       0.458000
@<TRIPOS>BOND
     1     1     2 1   
     2     1     9 1   
     3     1    10 1   
     4     1    11 1   
     5     2     3 1   
     6     2     6 1   
     7     2    12 1   
     8     3     4 1   
     9     3     7 1   
    10     3    14 1   
    11     4     8 1   
    12     4    16 1   
    13     4    17 1   
    14     5     9 1   
    15     5    19 1   
    16     6    15 1   
    17     7     9 1   
    18     8    18 1   
    19     9    13 1   
@<TRIPOS>SUBSTRUCTURE
     1 2DR         1 TEMP              0 ****  ****    0 ROOT
