@<TRIPOS>MOLECULE
2DS
   52    53     1     0     0
SMALL
bcc


@<TRIPOS>ATOM
      1 C1          -5.7710     1.4720     0.7510 ca         1 2DS       0.135100
      2 N1          -3.1680    -0.7250    -0.6250 ns         1 2DS      -0.520900
      3 O1          -5.0580     2.5020     1.2160 oh         1 2DS      -0.548100
      4 C3           5.9980     1.3380    -0.2270 ca         1 2DS       0.133100
      5 N3           2.8930    -0.3500     0.7600 ns         1 2DS      -0.485900
      6 O3           6.9320     0.4760     0.1900 oh         1 2DS      -0.560100
      7 C4          -7.1620     1.5380     0.9480 ca         1 2DS       0.087100
      8 O4          -7.7170     2.5930     1.5770 oh         1 2DS      -0.503100
      9 C6           6.4590     2.4820    -0.9010 ca         1 2DS       0.079100
     10 O6           7.7780     2.6700    -1.1080 oh         1 2DS      -0.511100
     11 C7          -7.9680     0.5150     0.4900 ca         1 2DS      -0.118000
     12 O7          -3.0470     1.3140     0.2920 o          1 2DS      -0.654100
     13 C9           5.5560     3.4250    -1.3510 ca         1 2DS      -0.129000
     14 O9           5.0460    -0.8440     1.1750 o          1 2DS      -0.660100
     15 C10         -7.4110    -0.5810    -0.1670 ca         1 2DS      -0.152000
     16 C12          4.1900     3.2470    -1.1370 ca         1 2DS      -0.161000
     17 O12          2.9950    -2.4800    -0.9080 o          1 2DS      -0.816300
     18 C13         -6.0490    -0.6560    -0.3610 ca         1 2DS      -0.091000
     19 O14          2.1850    -3.8850     0.6300 o          1 2DS      -0.816300
     20 C15          3.7290     2.1240    -0.4850 ca         1 2DS      -0.093000
     21 C16         -5.2080     0.3670     0.0990 ca         1 2DS      -0.218600
     22 C18          4.6250     1.1480    -0.0290 ca         1 2DS      -0.204600
     23 C19         -3.7370     0.3480    -0.0660 c          1 2DS       0.696700
     24 C21          4.1970    -0.0900     0.6690 c          1 2DS       0.687700
     25 C22         -1.7400    -0.8480    -0.7390 c3         1 2DS       0.045700
     26 C24          2.4040    -1.6180     1.2500 c3         1 2DS      -0.066300
     27 C25         -1.1230    -1.1710     0.6190 c          1 2DS       0.646100
     28 C27          2.5460    -2.7710     0.2090 c          1 2DS       0.935600
     29 C30          0.9670    -1.4820     1.7010 c3         1 2DS       0.153400
     30 HN1         -3.7120    -1.5570    -0.7890 hn         1 2DS       0.337500
     31 HO1         -4.1120     2.3180     0.9740 ho         1 2DS       0.499000
     32 HN3          2.2640     0.1810     0.1790 hn         1 2DS       0.311500
     33 HO3          6.4420    -0.2350     0.6860 ho         1 2DS       0.504000
     34 HO4         -7.0360     3.2320     1.8210 ho         1 2DS       0.445000
     35 HO6          8.2800     1.9350    -0.7350 ho         1 2DS       0.442000
     36 H7          -9.0380     0.5760     0.6450 ha         1 2DS       0.142000
     37 H10         -8.0530    -1.3730    -0.5260 ha         1 2DS       0.133000
     38 H13         -5.6520    -1.5160    -0.8810 ha         1 2DS       0.130000
     39 H15          2.6650     2.0240    -0.3160 ha         1 2DS       0.130000
     40 C20         -1.3870    -1.9200    -1.7590 c3         1 2DS       0.130400
     41 H22         -1.3170     0.0960    -1.0910 h1         1 2DS       0.099700
     42 H24          2.9790    -1.8900     2.1380 h1         1 2DS       0.081700
     43 H30          0.8530    -0.6900     2.4450 h1         1 2DS       0.052700
     44 H30A         0.6320    -2.4230     2.1350 h1         1 2DS       0.052700
     45 O11         -1.8940    -3.1410    -1.2800 oh         1 2DS      -0.602800
     46 H18         -1.8280    -1.6360    -2.7210 h1         1 2DS       0.051200
     47 H19         -0.3000    -1.9420    -1.8890 h1         1 2DS       0.051200
     48 H20         -1.7300    -3.8230    -1.9370 ho         1 2DS       0.416000
     49 O10         -1.7440    -1.4040     1.6200 o          1 2DS      -0.539000
     50 O15          0.1950    -1.1600     0.5360 os         1 2DS      -0.414900
     51 H9           5.9210     4.3070    -1.8620 ha         1 2DS       0.133000
     52 H12          3.4930     3.9990    -1.4820 ha         1 2DS       0.125000
@<TRIPOS>BOND
     1     1     3 1   
     2     1     7 ar  
     3     1    21 ar  
     4     2    23 1   
     5     2    25 1   
     6     2    30 1   
     7     3    31 1   
     8     4     6 1   
     9     4     9 ar  
    10     4    22 ar  
    11     5    24 1   
    12     5    26 1   
    13     5    32 1   
    14     6    33 1   
    15     7     8 1   
    16     7    11 ar  
    17     8    34 1   
    18     9    10 1   
    19     9    13 ar  
    20    10    35 1   
    21    11    15 ar  
    22    11    36 1   
    23    12    23 2   
    24    13    16 ar  
    25    13    51 1   
    26    14    24 2   
    27    15    18 ar  
    28    15    37 1   
    29    16    20 ar  
    30    16    52 1   
    31    17    28 1   
    32    18    21 ar  
    33    18    38 1   
    34    19    28 1   
    35    20    22 ar  
    36    20    39 1   
    37    21    23 1   
    38    22    24 1   
    39    25    27 1   
    40    25    40 1   
    41    25    41 1   
    42    26    28 1   
    43    26    29 1   
    44    26    42 1   
    45    27    49 2   
    46    27    50 1   
    47    29    43 1   
    48    29    44 1   
    49    29    50 1   
    50    40    45 1   
    51    40    46 1   
    52    40    47 1   
    53    45    48 1   
@<TRIPOS>SUBSTRUCTURE
     1 2DS         1 TEMP              0 ****  ****    0 ROOT
