@<TRIPOS>MOLECULE
2DS
   52    53     1     0     0
SMALL
No Charge or Current Charge


@<TRIPOS>ATOM
      1 C1          -5.7010     1.8740    -0.1470 ca         1 2DS       0.135100
      2 N1          -2.7730    -0.4750     0.0740 ns         1 2DS      -0.453900
      3 O1          -5.3920     2.5790    -1.2790 oh         1 2DS      -0.587100
      4 C3           4.7050     2.0130     0.9570 ca         1 2DS       0.133100
      5 N3           3.4300    -1.3360    -0.1880 ns         1 2DS      -0.418900
      6 O3           4.7410     1.8350     2.3130 oh         1 2DS      -0.599100
      7 C4          -6.8920     2.1840     0.5450 ca         1 2DS       0.087100
      8 O4          -7.7080     3.1740     0.0760 oh         1 2DS      -0.542100
      9 C6           5.1110     3.2540     0.4200 ca         1 2DS       0.079100
     10 O6           5.5300     4.2480     1.2580 oh         1 2DS      -0.550100
     11 C7          -7.2370     1.4810     1.7070 ca         1 2DS      -0.100000
     12 O7          -3.2420     1.1360    -1.4480 o          1 2DS      -0.654100
     13 C9           5.0860     3.4680    -0.9650 ca         1 2DS      -0.111000
     14 O9           3.8420    -0.5610     1.9070 o          1 2DS      -0.660100
     15 C10         -6.3930     0.4660     2.1810 ca         1 2DS      -0.134000
     16 C12          4.6530     2.4400    -1.8170 ca         1 2DS      -0.143000
     17 O12          2.9050    -3.1410    -2.1670 o          1 2DS      -0.711000
     18 C13         -5.2050     0.1510     1.4970 ca         1 2DS      -0.073000
     19 O14          2.8790    -4.8310    -0.8340 o          1 2DS      -0.711000
     20 C15          4.2470     1.2020    -1.2910 ca         1 2DS      -0.075000
     21 C16         -4.8380     0.8510     0.3180 ca         1 2DS      -0.218600
     22 C18          4.2670     0.9660     0.1090 ca         1 2DS      -0.204600
     23 C19         -3.5630     0.5270    -0.4330 c          1 2DS       0.629700
     24 C21          3.8320    -0.3610     0.6970 c          1 2DS       0.620700
     25 C22         -1.5200    -0.9680    -0.5530 c3         1 2DS       0.045700
     26 C24          2.9120    -2.6800     0.1840 c3         1 2DS      -0.066300
     27 C25         -0.6740    -1.7670     0.4650 c          1 2DS       0.597100
     28 C27          2.8550    -3.6270    -1.0440 c          1 2DS       0.725000
     29 C30          1.5390    -2.6210     0.8900 c3         1 2DS       0.176600
     30 HN1         -3.1020    -0.9430     0.9090 hn         1 2DS       0.337500
     31 HO1         -4.5230     2.2030    -1.5980 ho         1 2DS       0.538000
     32 HN3          3.4520    -1.1020    -1.1730 hn         1 2DS       0.311500
     33 HO3          4.4150     0.9030     2.4670 ho         1 2DS       0.543000
     34 HO4         -7.2740     3.5230    -0.7360 ho         1 2DS       0.484000
     35 HO6          5.4650     3.8790     2.1690 ho         1 2DS       0.481000
     36 H7          -8.1550     1.7220     2.2380 ha         1 2DS       0.124000
     37 H10         -6.6590    -0.0810     3.0830 ha         1 2DS       0.115000
     38 H13         -4.5830    -0.6430     1.9020 ha         1 2DS       0.112000
     39 H15          3.9190     0.4360    -1.9890 ha         1 2DS       0.112000
     40 C20         -1.7760    -1.7930    -1.8390 c3         1 2DS       0.153600
     41 H22         -0.9110    -0.0980    -0.8310 h1         1 2DS       0.099700
     42 H24          3.6280    -3.1310     0.8830 h1         1 2DS       0.081700
     43 H30          1.6420    -2.0910     1.8460 h1         1 2DS       0.052700
     44 H30A         1.1920    -3.6410     1.1040 h1         1 2DS       0.052700
     45 O11         -2.5960    -2.9410    -1.5560 oh         1 2DS      -0.665000
     46 H18         -2.2660    -1.1500    -2.5830 h1         1 2DS       0.051200
     47 H19         -0.8120    -2.1050    -2.2650 h1         1 2DS       0.051200
     48 H20         -2.7640    -3.3970    -2.4110 ho         1 2DS       0.455000
     49 O10         -1.0710    -2.1060     1.5750 o          1 2DS      -0.490000
     50 O15          0.6140    -1.9340     0.0270 os         1 2DS      -0.438100
     51 H9           5.3990     4.4240    -1.3760 ha         1 2DS       0.115000
     52 H12          4.6320     2.6040    -2.8930 ha         1 2DS       0.107000
@<TRIPOS>BOND
     1     1     3 1   
     2     1     7 ar  
     3     1    21 ar  
     4     2    23 1   
     5     2    25 1   
     6     2    30 1   
     7     3    31 1   
     8     4     6 1   
     9     4     9 ar  
    10     4    22 ar  
    11     5    24 1   
    12     5    26 1   
    13     5    32 1   
    14     6    33 1   
    15     7     8 1   
    16     7    11 ar  
    17     8    34 1   
    18     9    10 1   
    19     9    13 ar  
    20    10    35 1   
    21    11    15 ar  
    22    11    36 1   
    23    12    23 2   
    24    13    16 ar  
    25    13    51 1   
    26    14    24 2   
    27    15    18 ar  
    28    15    37 1   
    29    16    20 ar  
    30    16    52 1   
    31    17    28 1   
    32    18    21 ar  
    33    18    38 1   
    34    19    28 1   
    35    20    22 ar  
    36    20    39 1   
    37    21    23 1   
    38    22    24 1   
    39    25    27 1   
    40    25    40 1   
    41    25    41 1   
    42    26    28 1   
    43    26    29 1   
    44    26    42 1   
    45    27    49 2   
    46    27    50 1   
    47    29    43 1   
    48    29    44 1   
    49    29    50 1   
    50    40    45 1   
    51    40    46 1   
    52    40    47 1   
    53    45    48 1   
@<TRIPOS>SUBSTRUCTURE
     1 2DS         1 TEMP              0 ****  ****    0 ROOT
