@<TRIPOS>MOLECULE
2DU
   45    47     1     0     0
SMALL
bcc


@<TRIPOS>ATOM
      1 O           -1.0260     2.2360    -1.5850 o          1 2DU      -0.810800
      2 C           -1.3720     3.0060    -0.6760 c          1 2DU       0.931600
      3 OXT         -1.2460     4.2430    -0.6250 o          1 2DU      -0.810800
      4 CA          -2.0490     2.3910     0.5720 c3         1 2DU      -0.133700
      5 N           -2.2140     0.9580     0.5100 na         1 2DU       0.045600
      6 CAZ         -3.4130     0.2970     0.4860 ca         1 2DU      -0.071200
      7 CAM         -4.7100     0.7630     0.6870 ca         1 2DU      -0.086000
      8 CAL         -5.7520    -0.1420     0.6220 ca         1 2DU      -0.205000
      9 CAW         -5.5210    -1.5080     0.3600 ca         1 2DU       0.090100
     10 OAS         -6.5110    -2.4290     0.2920 os         1 2DU      -0.333900
     11 CAA         -7.8440    -2.0140     0.4990 c3         1 2DU       0.135700
     12 CAN         -4.2340    -1.9730     0.1560 ca         1 2DU      -0.129000
     13 CAY         -3.1710    -1.0670     0.2110 ca         1 2DU      -0.070800
     14 CAO         -1.7660    -1.2000     0.0420 cc         1 2DU      -0.214200
     15 CAX         -1.2320     0.0510     0.2220 cd         1 2DU      -0.075300
     16 CAU          0.1900     0.4210     0.2250 c          1 2DU       0.761300
     17 OAC          0.6720     1.2670     0.9460 o          1 2DU      -0.557100
     18 NAR          0.9600    -0.3510    -0.6140 ns         1 2DU      -0.641300
     19 SBB          2.6220    -0.1920    -0.7700 s6         1 2DU       1.243600
     20 OAD          2.9810    -1.1670    -1.7850 o          1 2DU      -0.590800
     21 OAE          2.9690     1.2000    -0.9720 o          1 2DU      -0.590800
     22 CAQ          3.2540    -0.7350     0.8210 c3         1 2DU      -0.164300
     23 CAV          4.7500    -0.6750     0.7890 ca         1 2DU      -0.075300
     24 CAJ          5.4160     0.4820     1.1830 ca         1 2DU      -0.103500
     25 CAH          6.8010     0.5400     1.1400 ca         1 2DU      -0.132500
     26 CAG          7.5300    -0.5550     0.6960 ca         1 2DU      -0.128000
     27 CAI          6.8700    -1.7100     0.2970 ca         1 2DU      -0.132500
     28 CAK          5.4850    -1.7680     0.3390 ca         1 2DU      -0.103500
     29 H2          -1.4830     2.6710     1.4620 h1         1 2DU       0.053200
     30 H3          -3.0380     2.8340     0.6880 h1         1 2DU       0.053200
     31 H4          -4.9200     1.8030     0.8970 ha         1 2DU       0.136000
     32 H5          -6.7560     0.2270     0.7830 ha         1 2DU       0.119000
     33 H6          -8.1650    -1.2720    -0.2370 h1         1 2DU       0.028367
     34 H7          -8.4640    -2.9000     0.3890 h1         1 2DU       0.028367
     35 H8          -7.9980    -1.6010     1.5000 h1         1 2DU       0.028367
     36 H9          -4.0590    -3.0230    -0.0450 ha         1 2DU       0.132000
     37 H10         -1.2200    -2.1110    -0.1490 ha         1 2DU       0.138000
     38 H11          0.5250    -1.0120    -1.2470 hn         1 2DU       0.355500
     39 H12          2.8270    -0.0780     1.5790 h1         1 2DU       0.107700
     40 H13          2.8790    -1.7470     0.9730 h1         1 2DU       0.107700
     41 H14          4.8530     1.3360     1.5380 ha         1 2DU       0.143000
     42 H15          7.3110     1.4400     1.4560 ha         1 2DU       0.127000
     43 H16          8.6110    -0.5110     0.6640 ha         1 2DU       0.122000
     44 H17          7.4330    -2.5680    -0.0480 ha         1 2DU       0.127000
     45 H18          4.9730    -2.6710     0.0310 ha         1 2DU       0.143000
@<TRIPOS>BOND
     1     1     2 1   
     2     2     3 1   
     3     2     4 1   
     4     4     5 1   
     5     4    29 1   
     6     4    30 1   
     7     5     6 1   
     8     5    15 1   
     9     6     7 ar  
    10     6    13 ar  
    11     7     8 ar  
    12     7    31 1   
    13     8     9 ar  
    14     8    32 1   
    15     9    10 1   
    16     9    12 ar  
    17    10    11 1   
    18    11    33 1   
    19    11    34 1   
    20    11    35 1   
    21    12    13 ar  
    22    12    36 1   
    23    13    14 1   
    24    14    15 2   
    25    14    37 1   
    26    15    16 1   
    27    16    17 2   
    28    16    18 1   
    29    18    19 1   
    30    18    38 1   
    31    19    20 2   
    32    19    21 2   
    33    19    22 1   
    34    22    23 1   
    35    22    39 1   
    36    22    40 1   
    37    23    24 ar  
    38    23    28 ar  
    39    24    25 ar  
    40    24    41 1   
    41    25    26 ar  
    42    25    42 1   
    43    26    27 ar  
    44    26    43 1   
    45    27    28 ar  
    46    27    44 1   
    47    28    45 1   
@<TRIPOS>SUBSTRUCTURE
     1 2DU         1 TEMP              0 ****  ****    0 ROOT
