@<TRIPOS>MOLECULE
2DU
   45    47     1     0     0
SMALL
No Charge or Current Charge


@<TRIPOS>ATOM
      1 O           -3.5430     4.1140    -0.0560 o          1 2DU      -0.705500
      2 C           -2.5360     3.4390    -0.2130 c          1 2DU       0.721000
      3 OXT         -1.8300     3.5020    -1.2100 o          1 2DU      -0.705500
      4 CA          -2.1370     2.4690     0.9060 c3         1 2DU      -0.104400
      5 N           -2.2070     1.0540     0.4900 na         1 2DU       0.016300
      6 CAZ         -3.3980     0.3370     0.4250 ca         1 2DU      -0.071200
      7 CAM         -4.7020     0.7650     0.7290 ca         1 2DU      -0.068000
      8 CAL         -5.7630    -0.1560     0.5820 ca         1 2DU      -0.187000
      9 CAW         -5.5080    -1.4820     0.1360 ca         1 2DU       0.090100
     10 OAS         -6.5110    -2.4160    -0.0220 os         1 2DU      -0.357100
     11 CAA         -7.8910    -2.1130     0.2540 c3         1 2DU       0.158900
     12 CAN         -4.1870    -1.8770    -0.1610 ca         1 2DU      -0.111000
     13 CAY         -3.1630    -0.9370    -0.0040 ca         1 2DU      -0.070800
     14 CAO         -1.7580    -1.0640    -0.2300 cc         1 2DU      -0.264200
     15 CAX         -1.1670     0.1710     0.0780 cd         1 2DU      -0.075300
     16 CAU          0.3000     0.4720    -0.0200 c          1 2DU       0.694300
     17 OAC          0.8030     1.5450     0.2760 o          1 2DU      -0.557100
     18 NAR          1.0460    -0.5790    -0.4500 ns         1 2DU      -0.574300
     19 SBB          2.6760    -0.6020    -0.7940 s6         1 2DU       1.212800
     20 OAD          2.9560    -1.8980    -1.4190 o          1 2DU      -0.520000
     21 OAE          3.0200     0.6410    -1.4930 o          1 2DU      -0.520000
     22 CAQ          3.4450    -0.5770     0.8390 c3         1 2DU      -0.275100
     23 CAV          4.9690    -0.6240     0.8210 ca         1 2DU      -0.075300
     24 CAJ          5.7150     0.5700     0.7820 ca         1 2DU      -0.085500
     25 CAH          7.1200     0.5260     0.7670 ca         1 2DU      -0.114500
     26 CAG          7.7870    -0.7110     0.7940 ca         1 2DU      -0.110000
     27 CAI          7.0460    -1.9040     0.8360 ca         1 2DU      -0.114500
     28 CAK          5.6410    -1.8610     0.8500 ca         1 2DU      -0.085500
     29 H2          -1.1240     2.7190     1.2360 h1         1 2DU       0.053200
     30 H3          -2.8060     2.6220     1.7610 h1         1 2DU       0.053200
     31 H4          -4.8990     1.7790     1.0680 ha         1 2DU       0.118000
     32 H5          -6.7700     0.1750     0.8170 ha         1 2DU       0.101000
     33 H6          -8.2460    -1.2960    -0.3870 h1         1 2DU       0.028367
     34 H7          -8.5180    -2.9930     0.0630 h1         1 2DU       0.028367
     35 H8          -8.0230    -1.8220     1.3040 h1         1 2DU       0.028367
     36 H9          -3.9720    -2.8850    -0.5040 ha         1 2DU       0.114000
     37 H10         -1.2530    -1.9620    -0.5750 ha         1 2DU       0.188000
     38 H11          0.5990    -1.4460    -0.6860 hn         1 2DU       0.355500
     39 H12          3.0930     0.3410     1.3220 h1         1 2DU       0.107700
     40 H13          3.0360    -1.4390     1.3760 h1         1 2DU       0.107700
     41 H14          5.2070     1.5320     0.7600 ha         1 2DU       0.125000
     42 H15          7.6920     1.4510     0.7360 ha         1 2DU       0.109000
     43 H16          8.8740    -0.7440     0.7830 ha         1 2DU       0.104000
     44 H17          7.5610    -2.8620     0.8570 ha         1 2DU       0.109000
     45 H18          5.0760    -2.7900     0.8820 ha         1 2DU       0.125000
@<TRIPOS>BOND
     1     1     2 1   
     2     2     3 1   
     3     2     4 1   
     4     4     5 1   
     5     4    29 1   
     6     4    30 1   
     7     5     6 1   
     8     5    15 1   
     9     6     7 ar  
    10     6    13 ar  
    11     7     8 ar  
    12     7    31 1   
    13     8     9 ar  
    14     8    32 1   
    15     9    10 1   
    16     9    12 ar  
    17    10    11 1   
    18    11    33 1   
    19    11    34 1   
    20    11    35 1   
    21    12    13 ar  
    22    12    36 1   
    23    13    14 1   
    24    14    15 2   
    25    14    37 1   
    26    15    16 1   
    27    16    17 2   
    28    16    18 1   
    29    18    19 1   
    30    18    38 1   
    31    19    20 2   
    32    19    21 2   
    33    19    22 1   
    34    22    23 1   
    35    22    39 1   
    36    22    40 1   
    37    23    24 ar  
    38    23    28 ar  
    39    24    25 ar  
    40    24    41 1   
    41    25    26 ar  
    42    25    42 1   
    43    26    27 ar  
    44    26    43 1   
    45    27    28 ar  
    46    27    44 1   
    47    28    45 1   
@<TRIPOS>SUBSTRUCTURE
     1 2DU         1 TEMP              0 ****  ****    0 ROOT
