@<TRIPOS>MOLECULE
2DV
   48    50     1     0     0
SMALL
abcg2


@<TRIPOS>ATOM
      1 O           -2.4810     2.2460    -1.6630 o          1 2DV      -0.705000
      2 C           -2.8400     3.0340    -0.7740 c          1 2DV       0.721000
      3 OXT         -2.7840     4.2770    -0.7790 o          1 2DV      -0.705000
      4 CA          -3.4290     2.4350     0.5250 c3         1 2DV      -0.104400
      5 N           -3.5660     0.9970     0.5040 na         1 2DV       0.016300
      6 CBC         -4.7520     0.3130     0.5380 ca         1 2DV      -0.071200
      7 CAO         -6.0490     0.7580     0.7830 ca         1 2DV      -0.067000
      8 CAN         -7.0750    -0.1670     0.7740 ca         1 2DV      -0.186000
      9 CAY         -6.8270    -1.5330     0.5250 ca         1 2DV       0.091100
     10 OAU         -7.8020    -2.4740     0.5110 os         1 2DV      -0.357100
     11 CAA         -9.1280    -2.0860     0.7990 c3         1 2DV       0.158900
     12 CAP         -5.5410    -1.9770     0.2780 ca         1 2DV      -0.111000
     13 CBB         -4.4940    -1.0500     0.2740 ca         1 2DV      -0.069800
     14 CAQ         -3.0960    -1.1590     0.0490 cc         1 2DV      -0.263200
     15 CBA         -2.5790     0.1050     0.1880 cd         1 2DV      -0.077300
     16 CAW         -1.1660     0.5000     0.1250 c          1 2DV       0.696300
     17 OAC         -0.6660     1.3610     0.8150 o          1 2DV      -0.557100
     18 NAT         -0.4210    -0.2690    -0.7400 ns         1 2DV      -0.574300
     19 SBF          1.2320    -0.1040    -0.9500 s6         1 2DV       1.217800
     20 OAD          1.5660    -1.0770    -1.9750 o          1 2DV      -0.517500
     21 OAE          1.5730     1.2880    -1.1550 o          1 2DV      -0.517500
     22 CAS          1.9130    -0.6500     0.6200 c3         1 2DV      -0.288100
     23 CAX          3.4060    -0.5870     0.5410 ca         1 2DV      -0.039300
     24 CAJ          4.1280    -1.6740     0.0610 ca         1 2DV      -0.094500
     25 CAL          5.5100    -1.6200    -0.0230 ca         1 2DV      -0.063000
     26 CAZ          6.1800    -0.4690     0.3690 ca         1 2DV      -0.199300
     27 CBE          7.6690    -0.3760     0.2500 c3         1 2DV       0.356300
     28 FAH          8.2170     0.2690     1.2870 f          1 2DV      -0.117333
     29 FAI          8.2520    -1.5760     0.1810 f          1 2DV      -0.117333
     30 FAG          8.0310     0.2970    -0.8530 f          1 2DV      -0.117333
     31 CAM          5.4650     0.6260     0.8430 ca         1 2DV      -0.063000
     32 CAK          4.0840     0.5660     0.9230 ca         1 2DV      -0.094500
     33 H2          -2.8160     2.7450     1.3720 h1         1 2DV       0.054200
     34 H3          -4.4170     2.8610     0.6940 h1         1 2DV       0.054200
     35 H4          -6.2720     1.7970     0.9850 ha         1 2DV       0.118000
     36 H5          -8.0790     0.1850     0.9670 ha         1 2DV       0.101000
     37 H6          -9.2250    -1.6590     1.8020 h1         1 2DV       0.029033
     38 H7          -9.5160    -1.3660     0.0740 h1         1 2DV       0.029033
     39 H8          -9.7320    -2.9890     0.7470 h1         1 2DV       0.029033
     40 H9          -5.3540    -3.0270     0.0860 ha         1 2DV       0.115000
     41 H10         -2.5400    -2.0620    -0.1500 ha         1 2DV       0.187000
     42 H11         -0.8720    -0.9450    -1.3470 hn         1 2DV       0.358500
     43 H12          1.5120     0.0030     1.3950 h1         1 2DV       0.112200
     44 H13          1.5480    -1.6650     0.7820 h1         1 2DV       0.112200
     45 H14          3.6130    -2.5770    -0.2390 ha         1 2DV       0.134500
     46 H15          6.0460    -2.4820    -0.3950 ha         1 2DV       0.127500
     47 H16          5.9710     1.5300     1.1560 ha         1 2DV       0.127500
     48 H17          3.5370     1.4190     1.3010 ha         1 2DV       0.134500
@<TRIPOS>BOND
     1     1     2 1   
     2     2     3 1   
     3     2     4 1   
     4     4     5 1   
     5     4    33 1   
     6     4    34 1   
     7     5     6 1   
     8     5    15 1   
     9     6     7 ar  
    10     6    13 ar  
    11     7     8 ar  
    12     7    35 1   
    13     8     9 ar  
    14     8    36 1   
    15     9    10 1   
    16     9    12 ar  
    17    10    11 1   
    18    11    37 1   
    19    11    38 1   
    20    11    39 1   
    21    12    13 ar  
    22    12    40 1   
    23    13    14 1   
    24    14    15 2   
    25    14    41 1   
    26    15    16 1   
    27    16    17 2   
    28    16    18 1   
    29    18    19 1   
    30    18    42 1   
    31    19    20 2   
    32    19    21 2   
    33    19    22 1   
    34    22    23 1   
    35    22    43 1   
    36    22    44 1   
    37    23    24 ar  
    38    23    32 ar  
    39    24    25 ar  
    40    24    45 1   
    41    25    26 ar  
    42    25    46 1   
    43    26    27 1   
    44    26    31 ar  
    45    27    28 1   
    46    27    29 1   
    47    27    30 1   
    48    31    32 ar  
    49    31    47 1   
    50    32    48 1   
@<TRIPOS>SUBSTRUCTURE
     1 2DV         1 TEMP              0 ****  ****    0 ROOT
