@<TRIPOS>MOLECULE
2DV
   48    50     1     0     0
SMALL
No Charge or Current Charge


@<TRIPOS>ATOM
      1 O           -4.9980     4.1090     0.0230 o          1 2DV      -0.705000
      2 C           -3.9850     3.4530    -0.1740 c          1 2DV       0.721000
      3 OXT         -3.3180     3.5290    -1.1960 o          1 2DV      -0.705000
      4 CA          -3.5270     2.4870     0.9270 c3         1 2DV      -0.104400
      5 N           -3.5900     1.0720     0.5110 na         1 2DV       0.016300
      6 CBC         -4.7700     0.3360     0.4900 ca         1 2DV      -0.071200
      7 CAO         -6.0690     0.7410     0.8440 ca         1 2DV      -0.067000
      8 CAN         -7.1190    -0.1970     0.7360 ca         1 2DV      -0.186000
      9 CAY         -6.8590    -1.5180     0.2780 ca         1 2DV       0.091100
     10 OAU         -7.8520    -2.4680     0.1560 os         1 2DV      -0.357100
     11 CAA         -9.2250    -2.1890     0.4860 c3         1 2DV       0.158900
     12 CAP         -5.5450    -1.8910    -0.0700 ca         1 2DV      -0.111000
     13 CBB         -4.5300    -0.9330     0.0500 ca         1 2DV      -0.069800
     14 CAQ         -3.1330    -1.0360    -0.2300 cc         1 2DV      -0.263200
     15 CBA         -2.5520     0.2070     0.0570 cd         1 2DV      -0.077300
     16 CAW         -1.0950     0.5340    -0.0960 c          1 2DV       0.696300
     17 OAC         -0.5990     1.6140     0.1830 o          1 2DV      -0.557100
     18 NAT         -0.3490    -0.5040    -0.5570 ns         1 2DV      -0.574300
     19 SBF          1.2660    -0.4970    -0.9650 s6         1 2DV       1.217800
     20 OAD          1.5440    -1.7870    -1.6040 o          1 2DV      -0.517500
     21 OAE          1.5610     0.7530    -1.6730 o          1 2DV      -0.517500
     22 CAS          2.0970    -0.4620     0.6330 c3         1 2DV      -0.288100
     23 CAX          3.6170    -0.4820     0.5480 ca         1 2DV      -0.039300
     24 CAJ          4.3130    -1.7040     0.5420 ca         1 2DV      -0.094500
     25 CAL          5.7160    -1.7230     0.4650 ca         1 2DV      -0.063000
     26 CAZ          6.4480    -0.5170     0.4000 ca         1 2DV      -0.199300
     27 CBE          7.9780    -0.5370     0.3050 c3         1 2DV       0.356300
     28 FAH          8.5430     0.5570     0.8660 f          1 2DV      -0.117333
     29 FAI          8.5180    -1.6100     0.9280 f          1 2DV      -0.117333
     30 FAG          8.3890    -0.5790    -0.9820 f          1 2DV      -0.117333
     31 CAM          5.7430     0.7060     0.4000 ca         1 2DV      -0.063000
     32 CAK          4.3400     0.7220     0.4770 ca         1 2DV      -0.094500
     33 H2          -2.5070     2.7540     1.2180 h1         1 2DV       0.054200
     34 H3          -4.1650     2.6280     1.8070 h1         1 2DV       0.054200
     35 H4          -6.2700     1.7510     1.1930 ha         1 2DV       0.118000
     36 H5          -8.1220     0.1160     1.0110 ha         1 2DV       0.101000
     37 H6          -9.3220    -1.9020     1.5410 h1         1 2DV       0.029033
     38 H7          -9.6180    -1.3770    -0.1390 h1         1 2DV       0.029033
     39 H8          -9.8440    -3.0790     0.3170 h1         1 2DV       0.029033
     40 H9          -5.3260    -2.8950    -0.4230 ha         1 2DV       0.115000
     41 H10         -2.6270    -1.9260    -0.5970 ha         1 2DV       0.187000
     42 H11         -0.7890    -1.3770    -0.7780 hn         1 2DV       0.358500
     43 H12          1.7490     0.4480     1.1320 h1         1 2DV       0.112200
     44 H13          1.7270    -1.3340     1.1830 h1         1 2DV       0.112200
     45 H14          3.7670    -2.6430     0.5930 ha         1 2DV       0.134500
     46 H15          6.2310    -2.6820     0.4530 ha         1 2DV       0.127500
     47 H16          6.2790     1.6520     0.3370 ha         1 2DV       0.127500
     48 H17          3.8140     1.6750     0.4770 ha         1 2DV       0.134500
@<TRIPOS>BOND
     1     1     2 1   
     2     2     3 1   
     3     2     4 1   
     4     4     5 1   
     5     4    33 1   
     6     4    34 1   
     7     5     6 1   
     8     5    15 1   
     9     6     7 ar  
    10     6    13 ar  
    11     7     8 ar  
    12     7    35 1   
    13     8     9 ar  
    14     8    36 1   
    15     9    10 1   
    16     9    12 ar  
    17    10    11 1   
    18    11    37 1   
    19    11    38 1   
    20    11    39 1   
    21    12    13 ar  
    22    12    40 1   
    23    13    14 1   
    24    14    15 2   
    25    14    41 1   
    26    15    16 1   
    27    16    17 2   
    28    16    18 1   
    29    18    19 1   
    30    18    42 1   
    31    19    20 2   
    32    19    21 2   
    33    19    22 1   
    34    22    23 1   
    35    22    43 1   
    36    22    44 1   
    37    23    24 ar  
    38    23    32 ar  
    39    24    25 ar  
    40    24    45 1   
    41    25    26 ar  
    42    25    46 1   
    43    26    27 1   
    44    26    31 ar  
    45    27    28 1   
    46    27    29 1   
    47    27    30 1   
    48    31    32 ar  
    49    31    47 1   
    50    32    48 1   
@<TRIPOS>SUBSTRUCTURE
     1 2DV         1 TEMP              0 ****  ****    0 ROOT
