@<TRIPOS>MOLECULE
2DW
   48    51     1     0     0
SMALL
No Charge or Current Charge


@<TRIPOS>ATOM
      1 O           -2.3960    -3.9690     1.0310 o          1 2DW      -0.706000
      2 C           -1.6190    -3.0310     0.9200 c          1 2DW       0.723000
      3 OXT         -0.6460    -3.0440     0.1800 o          1 2DW      -0.706000
      4 CA          -1.8780    -1.7770     1.7660 c3         1 2DW      -0.098400
      5 N           -2.2330    -0.6010     0.9480 na         1 2DW       0.028300
      6 CBC         -3.5020    -0.3990     0.4140 ca         1 2DW      -0.055200
      7 CAN         -4.6460    -1.2080     0.5260 ca         1 2DW      -0.058000
      8 CAI         -5.8330    -0.7880    -0.1130 ca         1 2DW      -0.184000
      9 CAW         -5.8610     0.4280    -0.8500 ca         1 2DW       0.088100
     10 OAT         -6.9970     0.8790    -1.4910 os         1 2DW      -0.358100
     11 CAA         -8.2370     0.1500    -1.4580 c3         1 2DW       0.158900
     12 CAO         -4.6960     1.2160    -0.9430 ca         1 2DW      -0.110000
     13 CBB         -3.5380     0.7670    -0.2960 ca         1 2DW      -0.079800
     14 CAQ         -2.2380     1.3560    -0.2250 cc         1 2DW      -0.243200
     15 CAY         -1.4330     0.5070     0.5470 cd         1 2DW      -0.111300
     16 CAV          0.0100     0.7550     0.8730 c          1 2DW       0.661300
     17 OAC          0.6960     0.0140     1.5570 o          1 2DW      -0.517100
     18 NAS          0.4990     1.9020     0.3310 ns         1 2DW      -0.592300
     19 SBE          2.0490     2.5070     0.4590 sy         1 2DW       1.191300
     20 OAD          2.0530     3.7110    -0.3780 o          1 2DW      -0.549500
     21 OAE          2.3500     2.5720     1.8940 o          1 2DW      -0.549500
     22 CAX          3.1020     1.2590    -0.3010 ca         1 2DW      -0.284500
     23 CAP          3.7270     0.2820     0.5010 ca         1 2DW       0.055000
     24 CBA          4.5450    -0.7000    -0.0920 ca         1 2DW      -0.061000
     25 CAL          5.1720    -1.6780     0.7050 ca         1 2DW      -0.068000
     26 CAH          5.9880    -2.6560     0.1090 ca         1 2DW      -0.123000
     27 CAG          6.1790    -2.6610    -1.2830 ca         1 2DW      -0.090000
     28 CAK          5.5550    -1.6870    -2.0820 ca         1 2DW      -0.113000
     29 CAZ          4.7380    -0.7060    -1.4910 ca         1 2DW       0.012000
     30 CAM          4.1100     0.2680    -2.2880 ca         1 2DW      -0.112000
     31 CAJ          3.2930     1.2480    -1.6980 ca         1 2DW      -0.029000
     32 H2          -2.6980    -1.9850     2.4640 h1         1 2DW       0.049700
     33 H3          -0.9860    -1.5710     2.3630 h1         1 2DW       0.049700
     34 H4          -4.6260    -2.1390     1.0890 ha         1 2DW       0.122000
     35 H5          -6.7160    -1.4140    -0.0260 ha         1 2DW       0.101000
     36 H6          -9.0070     0.6840    -2.0280 h1         1 2DW       0.028033
     37 H7          -8.1150    -0.8470    -1.9010 h1         1 2DW       0.028033
     38 H8          -8.5950     0.0360    -0.4260 h1         1 2DW       0.028033
     39 H9          -4.6970     2.1480    -1.5020 ha         1 2DW       0.113000
     40 H10         -1.9440     2.2940    -0.6880 ha         1 2DW       0.186000
     41 H11         -0.0830     2.4780    -0.2480 hn         1 2DW       0.347500
     42 H12          3.5790     0.2770     1.5800 ha         1 2DW       0.147000
     43 H13          5.0300    -1.6830     1.7840 ha         1 2DW       0.120000
     44 H14          6.4710    -3.4100     0.7260 ha         1 2DW       0.110000
     45 H15          6.8110    -3.4180    -1.7430 ha         1 2DW       0.106000
     46 H16          5.7070    -1.6980    -3.1590 ha         1 2DW       0.111000
     47 H17          4.2520     0.2680    -3.3660 ha         1 2DW       0.111000
     48 H18          2.8120     1.9930    -2.3310 ha         1 2DW       0.124000
@<TRIPOS>BOND
     1     1     2 1   
     2     2     3 1   
     3     2     4 1   
     4     4     5 1   
     5     4    32 1   
     6     4    33 1   
     7     5     6 1   
     8     5    15 1   
     9     6     7 ar  
    10     6    13 ar  
    11     7     8 ar  
    12     7    34 1   
    13     8     9 ar  
    14     8    35 1   
    15     9    10 1   
    16     9    12 ar  
    17    10    11 1   
    18    11    36 1   
    19    11    37 1   
    20    11    38 1   
    21    12    13 ar  
    22    12    39 1   
    23    13    14 1   
    24    14    15 2   
    25    14    40 1   
    26    15    16 1   
    27    16    17 2   
    28    16    18 1   
    29    18    19 1   
    30    18    41 1   
    31    19    20 2   
    32    19    21 2   
    33    19    22 1   
    34    22    23 ar  
    35    22    31 ar  
    36    23    24 ar  
    37    23    42 1   
    38    24    25 ar  
    39    24    29 ar  
    40    25    26 ar  
    41    25    43 1   
    42    26    27 ar  
    43    26    44 1   
    44    27    28 ar  
    45    27    45 1   
    46    28    29 ar  
    47    28    46 1   
    48    29    30 ar  
    49    30    31 ar  
    50    30    47 1   
    51    31    48 1   
@<TRIPOS>SUBSTRUCTURE
     1 2DW         1 TEMP              0 ****  ****    0 ROOT
