@<TRIPOS>MOLECULE
2DW
   48    51     1     0     0
SMALL
abcg2


@<TRIPOS>ATOM
      1 O           -1.0680    -2.6190     0.2490 o          1 2DW      -0.706000
      2 C           -1.1750    -2.5890     1.4830 c          1 2DW       0.723000
      3 OXT         -0.7850    -3.4310     2.3140 o          1 2DW      -0.706000
      4 CA          -1.9170    -1.3850     2.1050 c3         1 2DW      -0.098400
      5 N           -2.2550    -0.3560     1.1510 na         1 2DW       0.028300
      6 CBC         -3.4440    -0.2970     0.4850 ca         1 2DW      -0.055200
      7 CAN         -4.6090    -1.0470     0.6450 ca         1 2DW      -0.058000
      8 CAI         -5.6880    -0.7650    -0.1670 ca         1 2DW      -0.184000
      9 CAW         -5.6280     0.2560    -1.1410 ca         1 2DW       0.088100
     10 OAT         -6.6660     0.5620    -1.9560 os         1 2DW      -0.358100
     11 CAA         -7.8780    -0.1450    -1.8100 c3         1 2DW       0.158900
     12 CAO         -4.4760     1.0010    -1.3040 ca         1 2DW      -0.110000
     13 CBB         -3.3730     0.7240    -0.4870 ca         1 2DW      -0.079800
     14 CAQ         -2.0720     1.2740    -0.3920 cc         1 2DW      -0.243200
     15 CAY         -1.4200     0.5820     0.6030 cd         1 2DW      -0.111300
     16 CAV         -0.0300     0.7560     1.0380 c          1 2DW       0.661300
     17 OAC          0.6190    -0.0680     1.6430 o          1 2DW      -0.517100
     18 NAS          0.5210     1.9680     0.6740 ns         1 2DW      -0.592300
     19 SBE          2.1350     2.3450     0.9180 sy         1 2DW       1.191300
     20 OAD          2.2820     3.6430     0.2860 o          1 2DW      -0.549500
     21 OAE          2.4770     2.1860     2.3150 o          1 2DW      -0.549500
     22 CAX          2.9770     1.1330    -0.0430 ca         1 2DW      -0.284500
     23 CAP          3.7290     0.1780     0.5780 ca         1 2DW       0.055000
     24 CBA          4.4230    -0.7740    -0.2020 ca         1 2DW      -0.061000
     25 CAL          5.2170    -1.7790     0.3980 ca         1 2DW      -0.068000
     26 CAH          5.8760    -2.6930    -0.3780 ca         1 2DW      -0.123000
     27 CAG          5.7710    -2.6420    -1.7830 ca         1 2DW      -0.090000
     28 CAK          5.0080    -1.6800    -2.3890 ca         1 2DW      -0.113000
     29 CAZ          4.3160    -0.7230    -1.6150 ca         1 2DW       0.012000
     30 CAM          3.5180     0.2840    -2.2120 ca         1 2DW      -0.112000
     31 CAJ          2.8610     1.2040    -1.4490 ca         1 2DW      -0.029000
     32 H2          -2.8490    -1.7380     2.5500 h1         1 2DW       0.049700
     33 H3          -1.3390    -0.9620     2.9240 h1         1 2DW       0.049700
     34 H4          -4.6860    -1.8420     1.3750 ha         1 2DW       0.122000
     35 H5          -6.5870    -1.3520    -0.0410 ha         1 2DW       0.101000
     36 H6          -8.5660     0.2640    -2.5460 h1         1 2DW       0.028033
     37 H7          -7.7590    -1.2150    -2.0030 h1         1 2DW       0.028033
     38 H8          -8.3130    -0.0160    -0.8150 h1         1 2DW       0.028033
     39 H9          -4.4310     1.7840    -2.0510 ha         1 2DW       0.113000
     40 H10         -1.6660     2.0590    -1.0110 ha         1 2DW       0.186000
     41 H11         -0.0390     2.7050     0.2620 hn         1 2DW       0.347500
     42 H12          3.8040     0.1340     1.6570 ha         1 2DW       0.147000
     43 H13          5.2940    -1.8150     1.4770 ha         1 2DW       0.120000
     44 H14          6.4810    -3.4610     0.0860 ha         1 2DW       0.110000
     45 H15          6.2990    -3.3700    -2.3840 ha         1 2DW       0.106000
     46 H16          4.9280    -1.6430    -3.4690 ha         1 2DW       0.111000
     47 H17          3.4360     0.3230    -3.2910 ha         1 2DW       0.111000
     48 H18          2.2600     1.9710    -1.9190 ha         1 2DW       0.124000
@<TRIPOS>BOND
     1     1     2 1   
     2     2     3 1   
     3     2     4 1   
     4     4     5 1   
     5     4    32 1   
     6     4    33 1   
     7     5     6 1   
     8     5    15 1   
     9     6     7 ar  
    10     6    13 ar  
    11     7     8 ar  
    12     7    34 1   
    13     8     9 ar  
    14     8    35 1   
    15     9    10 1   
    16     9    12 ar  
    17    10    11 1   
    18    11    36 1   
    19    11    37 1   
    20    11    38 1   
    21    12    13 ar  
    22    12    39 1   
    23    13    14 1   
    24    14    15 2   
    25    14    40 1   
    26    15    16 1   
    27    16    17 2   
    28    16    18 1   
    29    18    19 1   
    30    18    41 1   
    31    19    20 2   
    32    19    21 2   
    33    19    22 1   
    34    22    23 ar  
    35    22    31 ar  
    36    23    24 ar  
    37    23    42 1   
    38    24    25 ar  
    39    24    29 ar  
    40    25    26 ar  
    41    25    43 1   
    42    26    27 ar  
    43    26    44 1   
    44    27    28 ar  
    45    27    45 1   
    46    28    29 ar  
    47    28    46 1   
    48    29    30 ar  
    49    30    31 ar  
    50    30    47 1   
    51    31    48 1   
@<TRIPOS>SUBSTRUCTURE
     1 2DW         1 TEMP              0 ****  ****    0 ROOT
