@<TRIPOS>MOLECULE
2DX
   84    88     1     0     0
SMALL
bcc


@<TRIPOS>ATOM
      1 C1           5.2060     0.9340    -4.3730 c3         1 2DX      -0.094100
      2 C2           4.5720     0.2090    -3.1930 c3         1 2DX      -0.078400
      3 C3           5.0810     0.6980    -1.8330 c3         1 2DX       0.103500
      4 N5           6.4760     0.3800    -1.6450 n7         1 2DX      -0.788200
      5 C6           7.0610     1.0260    -0.4870 c3         1 2DX       0.142100
      6 C7           4.2580     0.0100    -0.7450 c          1 2DX       0.667100
      7 O8           4.4330    -1.1590    -0.4390 o          1 2DX      -0.583100
      8 N9           3.3140     0.7890    -0.1880 ns         1 2DX      -0.571900
      9 C10          2.3620     0.3200     0.7910 c3         1 2DX       0.047700
     10 C12          2.1740     1.3380     1.9220 c6         1 2DX      -0.067700
     11 C13          1.1610     0.8280     2.9480 c6         1 2DX      -0.074400
     12 C14          0.9900     1.8050     4.1070 c6         1 2DX      -0.072400
     13 C15          2.3230     2.1130     4.7780 c6         1 2DX      -0.076400
     14 C16          3.3370     2.6250     3.7620 c6         1 2DX      -0.072400
     15 C17          3.5090     1.6520     2.6000 c6         1 2DX      -0.074400
     16 C18          1.0450     0.0660     0.0520 c          1 2DX       0.656100
     17 O19          0.5530     0.9870    -0.5850 o          1 2DX      -0.617100
     18 N20          0.4960    -1.1730     0.0540 n          1 2DX      -0.439800
     19 C21          0.7760    -2.1850     1.0730 c6         1 2DX       0.111000
     20 C22          0.5100    -3.5710     0.5350 c5         1 2DX       0.149500
     21 C24          0.5290    -4.6950     1.5650 c5         1 2DX      -0.071400
     22 C25         -0.4760    -5.7250     1.0020 c5         1 2DX      -0.077400
     23 C26         -1.0630    -5.0530    -0.2460 c5         1 2DX       0.161800
     24 N27         -0.8320    -3.6430    -0.0030 n3         1 2DX      -0.710600
     25 C28         -0.9580    -2.7730    -1.1360 c6         1 2DX       0.170800
     26 C29         -0.7280    -1.3220    -0.7130 c6         1 2DX       0.021700
     27 C31         -1.9170    -0.7450     0.0590 c          1 2DX       0.671100
     28 O32         -1.8800    -0.5220     1.2570 o          1 2DX      -0.595100
     29 N33         -2.9910    -0.5010    -0.7140 ns         1 2DX      -0.568900
     30 C34         -4.2000     0.1370    -0.2500 c6         1 2DX       0.165000
     31 C35         -5.4250    -0.7370    -0.4830 c6         1 2DX      -0.127400
     32 C36         -6.6680     0.0640    -0.1670 c6         1 2DX       0.140400
     33 O37         -6.7950     1.2020    -1.0110 os         1 2DX      -0.322900
     34 C38         -5.6800     1.9280    -1.2420 ca         1 2DX       0.147100
     35 C39         -5.8620     3.1650    -1.8600 ca         1 2DX      -0.167000
     36 C40         -4.7710     3.9690    -2.1420 ca         1 2DX      -0.093000
     37 C41         -3.4880     3.5490    -1.8080 ca         1 2DX      -0.165000
     38 C42         -3.3150     2.3160    -1.2000 ca         1 2DX      -0.079000
     39 C43         -4.3960     1.4870    -0.9090 ca         1 2DX      -0.191300
     40 H1           4.7630     0.5970    -5.3100 hc         1 2DX       0.034367
     41 H2           5.0510     2.0120    -4.3020 hc         1 2DX       0.034367
     42 H3           6.2800     0.7550    -4.4480 hc         1 2DX       0.034367
     43 H4           3.4900     0.3580    -3.2290 hc         1 2DX       0.060200
     44 H5           4.7460    -0.8660    -3.2710 hc         1 2DX       0.060200
     45 H6           4.8970     1.7860    -1.7760 h1         1 2DX       0.020700
     46 H7           6.9940     0.6580    -2.4680 hn         1 2DX       0.361800
     47 H9           6.9060     2.1140    -0.4580 h1         1 2DX       0.031700
     48 H10          6.6460     0.6130     0.4350 h1         1 2DX       0.031700
     49 H11          8.1340     0.8400    -0.4690 h1         1 2DX       0.031700
     50 H12          3.2100     1.7350    -0.5230 hn         1 2DX       0.323500
     51 H13          2.7790    -0.5880     1.2190 h1         1 2DX       0.090700
     52 H14          1.7820     2.2670     1.4860 hc         1 2DX       0.064700
     53 H15          0.1920     0.6430     2.4790 hc         1 2DX       0.046200
     54 H16          1.5030    -0.1370     3.3410 hc         1 2DX       0.046200
     55 H17          0.5440     2.7340     3.7360 hc         1 2DX       0.040950
     56 H18          0.2850     1.3930     4.8340 hc         1 2DX       0.040950
     57 H19          2.1860     2.8420     5.5800 hc         1 2DX       0.038700
     58 H20          2.7100     1.2020     5.2460 hc         1 2DX       0.038700
     59 H21          3.0060     3.5950     3.3750 hc         1 2DX       0.040950
     60 H22          4.3030     2.7990     4.2430 hc         1 2DX       0.040950
     61 H23          3.9530     0.7190     2.9680 hc         1 2DX       0.046200
     62 H24          4.2140     2.0670     1.8770 hc         1 2DX       0.046200
     63 H25          1.8170    -2.1250     1.3790 h1         1 2DX       0.065200
     64 H26          0.1550    -2.0090     1.9540 h1         1 2DX       0.065200
     65 H27          1.2530    -3.7850    -0.2560 h1         1 2DX       0.041700
     66 H28          1.5300    -5.1050     1.6940 hc         1 2DX       0.052700
     67 H29          0.2000    -4.3250     2.5380 hc         1 2DX       0.052700
     68 H30         -0.0000    -6.6720     0.7500 hc         1 2DX       0.049200
     69 H31         -1.2560    -5.9390     1.7320 hc         1 2DX       0.049200
     70 H32         -0.5360    -5.3970    -1.1500 h1         1 2DX       0.037200
     71 H33         -2.1260    -5.2580    -0.3900 h1         1 2DX       0.037200
     72 H35         -0.2320    -3.0230    -1.9280 h1         1 2DX       0.042700
     73 H36         -1.9520    -2.8640    -1.5790 h1         1 2DX       0.042700
     74 H37         -0.6200    -0.7430    -1.6320 h1         1 2DX       0.085700
     75 H38         -2.9120    -0.6560    -1.7080 hn         1 2DX       0.310500
     76 H39         -4.0810     0.2830     0.8260 h1         1 2DX       0.093700
     77 H40         -5.4550    -1.0880    -1.5190 hc         1 2DX       0.061200
     78 H41         -5.3900    -1.6160     0.1620 hc         1 2DX       0.061200
     79 H42         -7.5700    -0.5270    -0.3200 h1         1 2DX       0.056700
     80 H43         -6.6530     0.3880     0.8790 h1         1 2DX       0.056700
     81 H44         -6.8640     3.4870    -2.1150 ha         1 2DX       0.144000
     82 H45         -4.9260     4.9260    -2.6230 ha         1 2DX       0.131000
     83 H46         -2.6320     4.1730    -2.0250 ha         1 2DX       0.136000
     84 H47         -2.3120     1.9830    -0.9570 ha         1 2DX       0.147000
@<TRIPOS>BOND
     1     1     2 1   
     2     1    40 1   
     3     1    41 1   
     4     1    42 1   
     5     2     3 1   
     6     2    43 1   
     7     2    44 1   
     8     3     4 1   
     9     3     6 1   
    10     3    45 1   
    11     4     5 1   
    12     4    46 1   
    13     5    47 1   
    14     5    48 1   
    15     5    49 1   
    16     6     7 2   
    17     6     8 1   
    18     8     9 1   
    19     8    50 1   
    20     9    10 1   
    21     9    16 1   
    22     9    51 1   
    23    10    11 1   
    24    10    15 1   
    25    10    52 1   
    26    11    12 1   
    27    11    53 1   
    28    11    54 1   
    29    12    13 1   
    30    12    55 1   
    31    12    56 1   
    32    13    14 1   
    33    13    57 1   
    34    13    58 1   
    35    14    15 1   
    36    14    59 1   
    37    14    60 1   
    38    15    61 1   
    39    15    62 1   
    40    16    17 2   
    41    16    18 1   
    42    18    19 1   
    43    18    26 1   
    44    19    20 1   
    45    19    63 1   
    46    19    64 1   
    47    20    21 1   
    48    20    24 1   
    49    20    65 1   
    50    21    22 1   
    51    21    66 1   
    52    21    67 1   
    53    22    23 1   
    54    22    68 1   
    55    22    69 1   
    56    23    24 1   
    57    23    70 1   
    58    23    71 1   
    59    24    25 1   
    60    25    26 1   
    61    25    72 1   
    62    25    73 1   
    63    26    27 1   
    64    26    74 1   
    65    27    28 2   
    66    27    29 1   
    67    29    30 1   
    68    29    75 1   
    69    30    31 1   
    70    30    39 1   
    71    30    76 1   
    72    31    32 1   
    73    31    77 1   
    74    31    78 1   
    75    32    33 1   
    76    32    79 1   
    77    32    80 1   
    78    33    34 1   
    79    34    35 ar  
    80    34    39 ar  
    81    35    36 ar  
    82    35    81 1   
    83    36    37 ar  
    84    36    82 1   
    85    37    38 ar  
    86    37    83 1   
    87    38    39 ar  
    88    38    84 1   
@<TRIPOS>SUBSTRUCTURE
     1 2DX         1 TEMP              0 ****  ****    0 ROOT
