@<TRIPOS>MOLECULE
2DX
   84    88     1     0     0
SMALL
No Charge or Current Charge


@<TRIPOS>ATOM
      1 C1           7.6930     0.3600    -3.5900 c3         1 2DX      -0.094100
      2 C2           6.8630    -0.2920    -2.4610 c3         1 2DX      -0.078400
      3 C3           6.2590     0.7150    -1.4480 c3         1 2DX       0.103500
      4 N5           7.3580     1.4100    -0.7070 n7         1 2DX      -0.843400
      5 C6           6.9420     2.5500     0.1350 c3         1 2DX       0.142100
      6 C7           5.1940     0.0150    -0.5250 c          1 2DX       0.600100
      7 O8           5.4000    -1.0400     0.0650 o          1 2DX      -0.583100
      8 N9           3.9750     0.6610    -0.4530 ns         1 2DX      -0.504900
      9 C10          2.7850     0.1870     0.2960 c3         1 2DX       0.047700
     10 C12          2.6820     0.9230     1.6850 c6         1 2DX      -0.067700
     11 C13          1.3500     0.6510     2.4460 c6         1 2DX      -0.074400
     12 C14          1.2720     1.4470     3.7710 c6         1 2DX      -0.072400
     13 C15          2.4750     1.1230     4.6870 c6         1 2DX      -0.076400
     14 C16          3.8110     1.3840     3.9540 c6         1 2DX      -0.072400
     15 C17          3.8870     0.6000     2.6200 c6         1 2DX      -0.074400
     16 C18          1.5290     0.3750    -0.6240 c          1 2DX       0.589100
     17 O19          1.4700     1.3460    -1.3740 o          1 2DX      -0.617100
     18 N20          0.4900    -0.5980    -0.6540 n          1 2DX      -0.372800
     19 C21          0.3380    -1.7010     0.3580 c6         1 2DX       0.111000
     20 C22         -0.3340    -2.9800    -0.2270 c5         1 2DX       0.149500
     21 C24         -0.8990    -3.9860     0.8040 c5         1 2DX      -0.071400
     22 C25         -1.9520    -4.7800    -0.0360 c5         1 2DX      -0.077400
     23 C26         -2.1140    -3.9440    -1.3410 c5         1 2DX       0.161800
     24 N27         -1.5750    -2.6310    -0.9370 n3         1 2DX      -0.710600
     25 C28         -1.3670    -1.6490    -2.0170 c6         1 2DX       0.170800
     26 C29         -0.7780    -0.3350    -1.4300 c6         1 2DX       0.021700
     27 C31         -1.8130     0.4770    -0.5950 c          1 2DX       0.604100
     28 O32         -1.5660     1.5980    -0.1670 o          1 2DX      -0.595100
     29 N33         -3.0270    -0.1270    -0.3510 ns         1 2DX      -0.501900
     30 C34         -4.1540     0.4400     0.3920 c6         1 2DX       0.165000
     31 C35         -4.7670    -0.6600     1.2800 c6         1 2DX      -0.127400
     32 C36         -6.1170    -0.1840     1.8350 c6         1 2DX       0.163600
     33 O37         -7.0280     0.0920     0.7540 os         1 2DX      -0.346100
     34 C38         -6.5850     0.8210    -0.3300 ca         1 2DX       0.147100
     35 C39         -7.5430     1.3420    -1.2140 ca         1 2DX      -0.149000
     36 C40         -7.1430     2.1040    -2.3230 ca         1 2DX      -0.075000
     37 C41         -5.7790     2.3450    -2.5460 ca         1 2DX      -0.147000
     38 C42         -4.8130     1.8170    -1.6720 ca         1 2DX      -0.061000
     39 C43         -5.2030     1.0330    -0.5630 ca         1 2DX      -0.191300
     40 H1           8.0310    -0.4030    -4.3010 hc         1 2DX       0.034367
     41 H2           7.0920     1.0950    -4.1380 hc         1 2DX       0.034367
     42 H3           8.5800     0.8650    -3.1900 hc         1 2DX       0.034367
     43 H4           6.0440    -0.8580    -2.9230 hc         1 2DX       0.060200
     44 H5           7.4840    -1.0230    -1.9270 hc         1 2DX       0.060200
     45 H6           5.7110     1.4610    -2.0400 h1         1 2DX       0.020700
     46 H7           8.0330     1.7610    -1.3980 hn         1 2DX       0.417000
     47 H9           6.4560     3.3270    -0.4700 h1         1 2DX       0.031700
     48 H10          6.2390     2.2310     0.9150 h1         1 2DX       0.031700
     49 H11          7.8130     3.0000     0.6300 h1         1 2DX       0.031700
     50 H12          3.8800     1.5110    -1.0000 hn         1 2DX       0.323500
     51 H13          2.9160    -0.8840     0.4780 h1         1 2DX       0.090700
     52 H14          2.7110     1.9980     1.4500 hc         1 2DX       0.064700
     53 H15          0.4860     0.9230     1.8240 hc         1 2DX       0.046200
     54 H16          1.2620    -0.4200     2.6720 hc         1 2DX       0.046200
     55 H17          1.2470     2.5240     3.5570 hc         1 2DX       0.040950
     56 H18          0.3340     1.2110     4.2930 hc         1 2DX       0.040950
     57 H19          2.4240     1.7310     5.6000 hc         1 2DX       0.038700
     58 H20          2.4260     0.0720     5.0060 hc         1 2DX       0.038700
     59 H21          3.9200     2.4590     3.7570 hc         1 2DX       0.040950
     60 H22          4.6520     1.1000     4.6010 hc         1 2DX       0.040950
     61 H23          3.9170    -0.4790     2.8280 hc         1 2DX       0.046200
     62 H24          4.8350     0.8460     2.1280 hc         1 2DX       0.046200
     63 H25          1.2970    -1.9970     0.7960 h1         1 2DX       0.065200
     64 H26         -0.2930    -1.3270     1.1770 h1         1 2DX       0.065200
     65 H27          0.3810    -3.4670    -0.9050 h1         1 2DX       0.041700
     66 H28         -0.1200    -4.6320     1.2240 hc         1 2DX       0.052700
     67 H29         -1.3810    -3.4680     1.6410 hc         1 2DX       0.052700
     68 H30         -1.6180    -5.7990    -0.2610 hc         1 2DX       0.049200
     69 H31         -2.9010    -4.8640     0.5050 hc         1 2DX       0.049200
     70 H32         -1.5230    -4.3790    -2.1590 h1         1 2DX       0.037200
     71 H33         -3.1600    -3.8830    -1.6700 h1         1 2DX       0.037200
     72 H35         -0.6640    -2.0500    -2.7610 h1         1 2DX       0.042700
     73 H36         -2.3080    -1.4380    -2.5470 h1         1 2DX       0.042700
     74 H37         -0.5520     0.3080    -2.2900 h1         1 2DX       0.085700
     75 H38         -3.0900    -1.0970    -0.6470 hn         1 2DX       0.310500
     76 H39         -3.7870     1.2500     1.0430 h1         1 2DX       0.093700
     77 H40         -4.9210    -1.5800     0.6990 hc         1 2DX       0.061200
     78 H41         -4.0830    -0.9100     2.1010 hc         1 2DX       0.061200
     79 H42         -6.5580    -0.9500     2.4890 h1         1 2DX       0.056700
     80 H43         -5.9780     0.7320     2.4270 h1         1 2DX       0.056700
     81 H44         -8.5990     1.1610    -1.0320 ha         1 2DX       0.126000
     82 H45         -7.8880     2.5110    -3.0030 ha         1 2DX       0.113000
     83 H46         -5.4670     2.9430    -3.4000 ha         1 2DX       0.118000
     84 H47         -3.7630     2.0210    -1.8640 ha         1 2DX       0.129000
@<TRIPOS>BOND
     1     1     2 1   
     2     1    40 1   
     3     1    41 1   
     4     1    42 1   
     5     2     3 1   
     6     2    43 1   
     7     2    44 1   
     8     3     4 1   
     9     3     6 1   
    10     3    45 1   
    11     4     5 1   
    12     4    46 1   
    13     5    47 1   
    14     5    48 1   
    15     5    49 1   
    16     6     7 2   
    17     6     8 1   
    18     8     9 1   
    19     8    50 1   
    20     9    10 1   
    21     9    16 1   
    22     9    51 1   
    23    10    11 1   
    24    10    15 1   
    25    10    52 1   
    26    11    12 1   
    27    11    53 1   
    28    11    54 1   
    29    12    13 1   
    30    12    55 1   
    31    12    56 1   
    32    13    14 1   
    33    13    57 1   
    34    13    58 1   
    35    14    15 1   
    36    14    59 1   
    37    14    60 1   
    38    15    61 1   
    39    15    62 1   
    40    16    17 2   
    41    16    18 1   
    42    18    19 1   
    43    18    26 1   
    44    19    20 1   
    45    19    63 1   
    46    19    64 1   
    47    20    21 1   
    48    20    24 1   
    49    20    65 1   
    50    21    22 1   
    51    21    66 1   
    52    21    67 1   
    53    22    23 1   
    54    22    68 1   
    55    22    69 1   
    56    23    24 1   
    57    23    70 1   
    58    23    71 1   
    59    24    25 1   
    60    25    26 1   
    61    25    72 1   
    62    25    73 1   
    63    26    27 1   
    64    26    74 1   
    65    27    28 2   
    66    27    29 1   
    67    29    30 1   
    68    29    75 1   
    69    30    31 1   
    70    30    39 1   
    71    30    76 1   
    72    31    32 1   
    73    31    77 1   
    74    31    78 1   
    75    32    33 1   
    76    32    79 1   
    77    32    80 1   
    78    33    34 1   
    79    34    35 ar  
    80    34    39 ar  
    81    35    36 ar  
    82    35    81 1   
    83    36    37 ar  
    84    36    82 1   
    85    37    38 ar  
    86    37    83 1   
    87    38    39 ar  
    88    38    84 1   
@<TRIPOS>SUBSTRUCTURE
     1 2DX         1 TEMP              0 ****  ****    0 ROOT
