@<TRIPOS>MOLECULE
2DY
   88    93     1     0     0
SMALL
No Charge or Current Charge


@<TRIPOS>ATOM
      1 C1          -6.4080    -2.9800     3.6950 c3         1 2DY      -0.082100
      2 C2          -5.0520    -3.4450     3.1200 c3         1 2DY      -0.068400
      3 C3          -4.8570    -3.1250     1.6150 c3         1 2DY       0.103500
      4 N5          -5.8480    -3.8930     0.7950 n7         1 2DY      -0.852400
      5 C6          -5.9050    -3.5390    -0.6390 c3         1 2DY       0.143100
      6 C7          -3.3690    -3.3690     1.1810 c          1 2DY       0.561100
      7 O8          -2.8100    -4.4540     1.2950 o          1 2DY      -0.619100
      8 N9          -2.7270    -2.2680     0.6520 ns         1 2DY      -0.487900
      9 C10         -1.3440    -2.2500     0.1160 c3         1 2DY       0.040700
     10 C12         -1.3010    -2.5270    -1.4310 c6         1 2DY      -0.069700
     11 C13         -1.5970    -4.0130    -1.7820 c6         1 2DY      -0.073400
     12 C14         -1.4740    -4.2680    -3.3040 c6         1 2DY      -0.072900
     13 C15         -2.3990    -3.3220    -4.1070 c6         1 2DY      -0.076400
     14 C16         -2.1160    -1.8390    -3.7640 c6         1 2DY      -0.072900
     15 C17         -2.2400    -1.5840    -2.2410 c6         1 2DY      -0.073400
     16 C18         -0.6250    -0.9190     0.5230 c          1 2DY       0.589100
     17 O19         -1.2430    -0.0150     1.0800 o          1 2DY      -0.604100
     18 N20          0.7500    -0.7620     0.2020 n          1 2DY      -0.376800
     19 C21          1.6550    -1.9470     0.4080 c6         1 2DY       0.105000
     20 C22          3.0970    -1.7560    -0.0980 c5         1 2DY       0.175500
     21 C24          4.1630    -2.8060     0.4470 c5         1 2DY      -0.022100
     22 C25          5.2900    -1.9010     0.9270 ca         1 2DY      -0.142300
     23 C26          6.5500    -2.2900     1.4100 ca         1 2DY      -0.061000
     24 C27          7.4560    -1.2900     1.8180 ca         1 2DY      -0.144000
     25 C28          7.0990     0.0750     1.7410 ca         1 2DY      -0.077000
     26 C29          5.8290     0.4460     1.2550 ca         1 2DY      -0.151000
     27 C30          4.9470    -0.5690     0.8590 ca         1 2DY       0.277000
     28 N31          3.6620    -0.4760     0.3470 nh         1 2DY      -0.774400
     29 C32          2.9380     0.7870     0.1500 c6         1 2DY       0.193800
     30 C33          1.3810     0.6310     0.3090 c6         1 2DY       0.021700
     31 C35          0.6880     1.7400    -0.5500 c          1 2DY       0.616100
     32 O36         -0.3070     1.5340    -1.2330 o          1 2DY      -0.591100
     33 N37          1.2430     3.0050    -0.4810 ns         1 2DY      -0.495900
     34 C38          0.7250     4.2070    -1.1450 c6         1 2DY       0.166000
     35 C40          1.9100     5.0440    -1.6650 c6         1 2DY      -0.131400
     36 C41          1.4130     6.4310    -2.0980 c6         1 2DY       0.165600
     37 O42          0.8280     7.1190    -0.9760 os         1 2DY      -0.346100
     38 C43         -0.0510     6.4430    -0.1560 ca         1 2DY       0.147100
     39 C44         -0.8390     7.1940     0.7310 ca         1 2DY      -0.149000
     40 C45         -1.7610     6.5560     1.5750 ca         1 2DY      -0.073000
     41 C46         -1.8950     5.1600     1.5290 ca         1 2DY      -0.149000
     42 C47         -1.1020     4.4000     0.6520 ca         1 2DY      -0.059000
     43 C48         -0.1570     5.0300    -0.1890 ca         1 2DY      -0.190300
     44 H1          -6.5380    -1.9000     3.5570 hc         1 2DY       0.037033
     45 H2          -7.2430    -3.4950     3.2050 hc         1 2DY       0.037033
     46 H3          -6.4600    -3.1950     4.7690 hc         1 2DY       0.037033
     47 H4          -4.2530    -2.9550     3.6890 hc         1 2DY       0.048700
     48 H5          -4.9380    -4.5240     3.2860 hc         1 2DY       0.048700
     49 H6          -5.0460    -2.0490     1.4920 h1         1 2DY       0.064700
     50 H7          -5.6160    -4.8930     0.8700 hn         1 2DY       0.429000
     51 H9          -6.1480    -2.4760    -0.7690 h1         1 2DY       0.032367
     52 H10         -4.9440    -3.7340    -1.1340 h1         1 2DY       0.032367
     53 H11         -6.6760    -4.1290    -1.1510 h1         1 2DY       0.032367
     54 H12         -3.2480    -1.3980     0.6360 hn         1 2DY       0.332500
     55 H13         -0.7860    -3.0510     0.6150 h1         1 2DY       0.091700
     56 H14         -0.2710    -2.3230    -1.7540 hc         1 2DY       0.058700
     57 H15         -0.9040    -4.6730    -1.2420 hc         1 2DY       0.047700
     58 H16         -2.6080    -4.2860    -1.4540 hc         1 2DY       0.047700
     59 H17         -0.4310    -4.1240    -3.6210 hc         1 2DY       0.039950
     60 H18         -1.7260    -5.3140    -3.5280 hc         1 2DY       0.039950
     61 H19         -2.2600    -3.4890    -5.1840 hc         1 2DY       0.038200
     62 H20         -3.4500    -3.5580    -3.8880 hc         1 2DY       0.038200
     63 H21         -1.1080    -1.5650    -4.1040 hc         1 2DY       0.039950
     64 H22         -2.8160    -1.1910    -4.3080 hc         1 2DY       0.039950
     65 H23         -3.2850    -1.7330    -1.9370 hc         1 2DY       0.047700
     66 H24         -2.0000    -0.5340    -2.0270 hc         1 2DY       0.047700
     67 H25          1.6860    -2.1600     1.4860 h1         1 2DY       0.058200
     68 H26          1.2460    -2.8380    -0.0850 h1         1 2DY       0.058200
     69 H27          3.0760    -1.7830    -1.1970 h1         1 2DY       0.055700
     70 H28          3.7600    -3.4100     1.2680 hc         1 2DY       0.062200
     71 H29          4.4850    -3.4970    -0.3400 hc         1 2DY       0.062200
     72 H30          6.8210    -3.3420     1.4690 ha         1 2DY       0.115000
     73 H31          8.4380    -1.5710     2.1940 ha         1 2DY       0.116000
     74 H32          7.8050     0.8410     2.0560 ha         1 2DY       0.112000
     75 H33          5.5480     1.4920     1.1880 ha         1 2DY       0.116000
     76 H34          3.2900     1.5510     0.8590 h1         1 2DY       0.057700
     77 H35          3.1640     1.1530    -0.8630 h1         1 2DY       0.057700
     78 H36          1.1850     0.9510     1.3410 h1         1 2DY       0.062700
     79 H37          2.0340     3.1240     0.1380 hn         1 2DY       0.317500
     80 H38          0.1070     3.9080    -2.0060 h1         1 2DY       0.093700
     81 H39          2.6700     5.1640    -0.8810 hc         1 2DY       0.059700
     82 H40          2.3940     4.5330    -2.5080 hc         1 2DY       0.059700
     83 H41          2.2420     7.0330    -2.4950 h1         1 2DY       0.057700
     84 H42          0.6540     6.3280    -2.8880 h1         1 2DY       0.057700
     85 H43         -0.7390     8.2760     0.7560 ha         1 2DY       0.126000
     86 H44         -2.3730     7.1420     2.2570 ha         1 2DY       0.114000
     87 H45         -2.6150     4.6630     2.1760 ha         1 2DY       0.117000
     88 H46         -1.2300     3.3200     0.6340 ha         1 2DY       0.136000
@<TRIPOS>BOND
     1     1     2 1   
     2     1    44 1   
     3     1    45 1   
     4     1    46 1   
     5     2     3 1   
     6     2    47 1   
     7     2    48 1   
     8     3     4 1   
     9     3     6 1   
    10     3    49 1   
    11     4     5 1   
    12     4    50 1   
    13     5    51 1   
    14     5    52 1   
    15     5    53 1   
    16     6     7 2   
    17     6     8 1   
    18     8     9 1   
    19     8    54 1   
    20     9    10 1   
    21     9    16 1   
    22     9    55 1   
    23    10    11 1   
    24    10    15 1   
    25    10    56 1   
    26    11    12 1   
    27    11    57 1   
    28    11    58 1   
    29    12    13 1   
    30    12    59 1   
    31    12    60 1   
    32    13    14 1   
    33    13    61 1   
    34    13    62 1   
    35    14    15 1   
    36    14    63 1   
    37    14    64 1   
    38    15    65 1   
    39    15    66 1   
    40    16    17 2   
    41    16    18 1   
    42    18    19 1   
    43    18    30 1   
    44    19    20 1   
    45    19    67 1   
    46    19    68 1   
    47    20    21 1   
    48    20    28 1   
    49    20    69 1   
    50    21    22 1   
    51    21    70 1   
    52    21    71 1   
    53    22    23 ar  
    54    22    27 ar  
    55    23    24 ar  
    56    23    72 1   
    57    24    25 ar  
    58    24    73 1   
    59    25    26 ar  
    60    25    74 1   
    61    26    27 ar  
    62    26    75 1   
    63    27    28 1   
    64    28    29 1   
    65    29    30 1   
    66    29    76 1   
    67    29    77 1   
    68    30    31 1   
    69    30    78 1   
    70    31    32 2   
    71    31    33 1   
    72    33    34 1   
    73    33    79 1   
    74    34    35 1   
    75    34    43 1   
    76    34    80 1   
    77    35    36 1   
    78    35    81 1   
    79    35    82 1   
    80    36    37 1   
    81    36    83 1   
    82    36    84 1   
    83    37    38 1   
    84    38    39 ar  
    85    38    43 ar  
    86    39    40 ar  
    87    39    85 1   
    88    40    41 ar  
    89    40    86 1   
    90    41    42 ar  
    91    41    87 1   
    92    42    43 ar  
    93    42    88 1   
@<TRIPOS>SUBSTRUCTURE
     1 2DY         1 TEMP              0 ****  ****    0 ROOT
