@<TRIPOS>MOLECULE
2DY
   88    93     1     0     0
SMALL
bcc


@<TRIPOS>ATOM
      1 C1          -5.9830    -1.4930     3.4770 c3         1 2DY      -0.082100
      2 C2          -4.6360    -2.0140     3.0010 c3         1 2DY      -0.068400
      3 C3          -4.6460    -2.4440     1.5320 c3         1 2DY       0.103500
      4 N5          -5.5940    -3.5110     1.3120 n7         1 2DY      -0.797200
      5 C6          -5.7450    -3.8890    -0.0780 c3         1 2DY       0.143100
      6 C7          -3.2220    -2.8370     1.1310 c          1 2DY       0.628100
      7 O8          -2.7290    -3.8900     1.5120 o          1 2DY      -0.619100
      8 N9          -2.5740    -1.9440     0.3650 ns         1 2DY      -0.554900
      9 C10         -1.2030    -2.0790    -0.0460 c3         1 2DY       0.040700
     10 C12         -1.0580    -2.4470    -1.5390 c6         1 2DY      -0.069700
     11 C13         -1.5390    -3.8680    -1.8220 c6         1 2DY      -0.073400
     12 C14         -1.3240    -4.2410    -3.2870 c6         1 2DY      -0.072900
     13 C15         -1.9970    -3.2430    -4.2230 c6         1 2DY      -0.076400
     14 C16         -1.5410    -1.8190    -3.9280 c6         1 2DY      -0.072900
     15 C17         -1.7590    -1.4510    -2.4630 c6         1 2DY      -0.073400
     16 C18         -0.4660    -0.7710     0.2340 c          1 2DY       0.656100
     17 O19         -1.0900     0.2580     0.4340 o          1 2DY      -0.604100
     18 N20          0.8930    -0.7830     0.1740 n          1 2DY      -0.443800
     19 C21          1.6280    -2.0100     0.5060 c6         1 2DY       0.105000
     20 C22          3.0640    -1.9160     0.0630 c5         1 2DY       0.175500
     21 C24          4.0040    -3.0150     0.5650 c5         1 2DY      -0.022100
     22 C25          5.3010    -2.2570     0.6750 ca         1 2DY      -0.142300
     23 C26          6.6020    -2.6970     0.7880 ca         1 2DY      -0.079000
     24 C27          7.6320    -1.7590     0.9020 ca         1 2DY      -0.162000
     25 C28          7.3380    -0.4030     0.9050 ca         1 2DY      -0.095000
     26 C29          6.0250     0.0560     0.7950 ca         1 2DY      -0.169000
     27 C30          5.0140    -0.8860     0.6890 ca         1 2DY       0.138600
     28 N31          3.6440    -0.6980     0.6020 nh         1 2DY      -0.636000
     29 C32          3.0400     0.4760     0.0520 c6         1 2DY       0.193800
     30 C33          1.5450     0.5020     0.4070 c6         1 2DY       0.021700
     31 C35          0.9410     1.5820    -0.4940 c          1 2DY       0.683100
     32 O36          0.7080     1.3700    -1.6710 o          1 2DY      -0.591100
     33 N37          0.8370     2.7850     0.0930 ns         1 2DY      -0.562900
     34 C38          0.4500     3.9930    -0.5970 c6         1 2DY       0.166000
     35 C40          1.5970     4.9950    -0.6500 c6         1 2DY      -0.131400
     36 C41          1.0860     6.3100    -1.1920 c6         1 2DY       0.142400
     37 O42          0.0780     6.8670    -0.3580 os         1 2DY      -0.322900
     38 C43         -0.8690     6.0280     0.1130 ca         1 2DY       0.147100
     39 C44         -1.9840     6.6190     0.7070 ca         1 2DY      -0.167000
     40 C45         -2.9980     5.8310     1.2220 ca         1 2DY      -0.091000
     41 C46         -2.9130     4.4460     1.1480 ca         1 2DY      -0.167000
     42 C47         -1.7990     3.8640     0.5630 ca         1 2DY      -0.077000
     43 C48         -0.7640     4.6360     0.0410 ca         1 2DY      -0.190300
     44 H1          -6.3020    -0.6320     2.8870 hc         1 2DY       0.037033
     45 H2          -6.7550    -2.2560     3.3960 hc         1 2DY       0.037033
     46 H3          -5.9290    -1.1780     4.5200 hc         1 2DY       0.037033
     47 H4          -3.8770    -1.2390     3.1320 hc         1 2DY       0.048700
     48 H5          -4.3180    -2.8600     3.6180 hc         1 2DY       0.048700
     49 H6          -4.9690    -1.5860     0.9290 h1         1 2DY       0.064700
     50 H7          -5.3190    -4.3190     1.8590 hn         1 2DY       0.373800
     51 H9          -6.1090    -3.0370    -0.6540 h1         1 2DY       0.032367
     52 H10         -4.8270    -4.2460    -0.5660 h1         1 2DY       0.032367
     53 H11         -6.4870    -4.6830    -0.1620 h1         1 2DY       0.032367
     54 H12         -3.0520    -1.0910     0.1220 hn         1 2DY       0.332500
     55 H13         -0.7810    -2.8870     0.5540 h1         1 2DY       0.091700
     56 H14          0.0130    -2.4120    -1.7740 hc         1 2DY       0.058700
     57 H15         -1.0170    -4.5760    -1.1740 hc         1 2DY       0.047700
     58 H16         -2.6050    -3.9520    -1.5810 hc         1 2DY       0.047700
     59 H17         -0.2500    -4.2710    -3.4990 hc         1 2DY       0.039950
     60 H18         -1.7030    -5.2490    -3.4720 hc         1 2DY       0.039950
     61 H19         -1.7870    -3.5000    -5.2640 hc         1 2DY       0.038200
     62 H20         -3.0840    -3.3090    -4.1010 hc         1 2DY       0.038200
     63 H21         -0.4760    -1.7210    -4.1680 hc         1 2DY       0.039950
     64 H22         -2.0680    -1.1100    -4.5700 hc         1 2DY       0.039950
     65 H23         -2.8340    -1.4500    -2.2530 hc         1 2DY       0.047700
     66 H24         -1.3980    -0.4360    -2.2820 hc         1 2DY       0.047700
     67 H25          1.5910    -2.1920     1.5850 h1         1 2DY       0.058200
     68 H26          1.1720    -2.8610     0.0070 h1         1 2DY       0.058200
     69 H27          3.1020    -1.8830    -1.0390 h1         1 2DY       0.055700
     70 H28          3.6880    -3.3860     1.5460 hc         1 2DY       0.062200
     71 H29          4.0450    -3.8660    -0.1140 hc         1 2DY       0.062200
     72 H30          6.8260    -3.7570     0.7790 ha         1 2DY       0.133000
     73 H31          8.6590    -2.0900     0.9840 ha         1 2DY       0.134000
     74 H32          8.1410     0.3190     0.9860 ha         1 2DY       0.130000
     75 H33          5.8180     1.1190     0.7910 ha         1 2DY       0.134000
     76 H34          3.4940     1.3750     0.4700 h1         1 2DY       0.057700
     77 H35          3.1660     0.5090    -1.0400 h1         1 2DY       0.057700
     78 H36          1.4480     0.7790     1.4640 h1         1 2DY       0.062700
     79 H37          1.0320     2.8630     1.0800 hn         1 2DY       0.317500
     80 H38          0.1950     3.7010    -1.6180 h1         1 2DY       0.093700
     81 H39          2.0190     5.1410     0.3480 hc         1 2DY       0.059700
     82 H40          2.3960     4.6210    -1.2920 hc         1 2DY       0.059700
     83 H41          1.8800     7.0530    -1.2420 h1         1 2DY       0.057700
     84 H42          0.6890     6.1760    -2.2050 h1         1 2DY       0.057700
     85 H43         -2.0450     7.6990     0.7580 ha         1 2DY       0.144000
     86 H44         -3.8590     6.3020     1.6780 ha         1 2DY       0.132000
     87 H45         -3.7040     3.8250     1.5480 ha         1 2DY       0.135000
     88 H46         -1.7210     2.7850     0.5160 ha         1 2DY       0.154000
@<TRIPOS>BOND
     1     1     2 1   
     2     1    44 1   
     3     1    45 1   
     4     1    46 1   
     5     2     3 1   
     6     2    47 1   
     7     2    48 1   
     8     3     4 1   
     9     3     6 1   
    10     3    49 1   
    11     4     5 1   
    12     4    50 1   
    13     5    51 1   
    14     5    52 1   
    15     5    53 1   
    16     6     7 2   
    17     6     8 1   
    18     8     9 1   
    19     8    54 1   
    20     9    10 1   
    21     9    16 1   
    22     9    55 1   
    23    10    11 1   
    24    10    15 1   
    25    10    56 1   
    26    11    12 1   
    27    11    57 1   
    28    11    58 1   
    29    12    13 1   
    30    12    59 1   
    31    12    60 1   
    32    13    14 1   
    33    13    61 1   
    34    13    62 1   
    35    14    15 1   
    36    14    63 1   
    37    14    64 1   
    38    15    65 1   
    39    15    66 1   
    40    16    17 2   
    41    16    18 1   
    42    18    19 1   
    43    18    30 1   
    44    19    20 1   
    45    19    67 1   
    46    19    68 1   
    47    20    21 1   
    48    20    28 1   
    49    20    69 1   
    50    21    22 1   
    51    21    70 1   
    52    21    71 1   
    53    22    23 ar  
    54    22    27 ar  
    55    23    24 ar  
    56    23    72 1   
    57    24    25 ar  
    58    24    73 1   
    59    25    26 ar  
    60    25    74 1   
    61    26    27 ar  
    62    26    75 1   
    63    27    28 1   
    64    28    29 1   
    65    29    30 1   
    66    29    76 1   
    67    29    77 1   
    68    30    31 1   
    69    30    78 1   
    70    31    32 2   
    71    31    33 1   
    72    33    34 1   
    73    33    79 1   
    74    34    35 1   
    75    34    43 1   
    76    34    80 1   
    77    35    36 1   
    78    35    81 1   
    79    35    82 1   
    80    36    37 1   
    81    36    83 1   
    82    36    84 1   
    83    37    38 1   
    84    38    39 ar  
    85    38    43 ar  
    86    39    40 ar  
    87    39    85 1   
    88    40    41 ar  
    89    40    86 1   
    90    41    42 ar  
    91    41    87 1   
    92    42    43 ar  
    93    42    88 1   
@<TRIPOS>SUBSTRUCTURE
     1 2DY         1 TEMP              0 ****  ****    0 ROOT
