@<TRIPOS>MOLECULE
2DZ
   47    49     1     0     0
SMALL
abcg2


@<TRIPOS>ATOM
      1 O           -1.3760     2.2360    -1.6850 oh         1 2DZ      -0.629100
      2 C           -2.5400     2.6310    -1.2320 c          1 2DZ       0.615100
      3 OXT         -3.3240     3.2290    -1.9290 o          1 2DZ      -0.515000
      4 CA          -2.8460     2.2700     0.2180 c3         1 2DZ      -0.045400
      5 N           -2.8970     0.8390     0.4100 na         1 2DZ      -0.060700
      6 CBD         -4.0470     0.1120     0.2260 ca         1 2DZ      -0.070200
      7 CAO         -5.2870     0.5010    -0.2690 ca         1 2DZ      -0.082000
      8 CAM         -6.2890    -0.4490    -0.3390 ca         1 2DZ      -0.179000
      9 CAX         -6.0670    -1.7770     0.0750 ca         1 2DZ       0.092100
     10 OAU         -7.0170    -2.7400     0.0210 os         1 2DZ      -0.355100
     11 CAA         -8.3030    -2.4020    -0.4500 c3         1 2DZ       0.156900
     12 CAQ         -4.8310    -2.1620     0.5680 ca         1 2DZ      -0.105000
     13 CBC         -3.8120    -1.2110     0.6510 ca         1 2DZ      -0.070800
     14 CAR         -2.4660    -1.2530     1.1090 cc         1 2DZ      -0.218200
     15 CAZ         -1.9390    -0.0020     0.9400 cd         1 2DZ      -0.063300
     16 CAW         -0.5290     0.3580     1.2190 cf         1 2DZ       0.661500
     17 OAC          0.0910    -0.2670     2.0690 o          1 2DZ      -0.680300
     18 NAT         -0.0420     1.3370     0.4220 ne         1 2DZ      -0.713600
     19 SBH          1.4380     1.9020     0.7030 sy         1 2DZ       1.192100
     20 OAE          1.7390     2.8610    -0.3540 o          1 2DZ      -0.571500
     21 OAF          1.6240     2.3470     2.0780 o          1 2DZ      -0.571500
     22 CBB          2.6060     0.5530     0.4620 ca         1 2DZ      -0.157500
     23 CAN          3.1560    -0.0570     1.5750 ca         1 2DZ      -0.011000
     24 CAL          4.1440    -1.0210     1.4400 ca         1 2DZ      -0.066000
     25 CAY          4.6100    -1.3620     0.1810 ca         1 2DZ      -0.179300
     26 CBG          5.6900    -2.3850    -0.0090 c3         1 2DZ       0.357300
     27 FAJ          5.2720    -3.3930    -0.7820 f          1 2DZ      -0.115000
     28 FAK          6.7600    -1.8510    -0.6110 f          1 2DZ      -0.115000
     29 FAI          6.1010    -2.9100     1.1440 f          1 2DZ      -0.115000
     30 CAP          4.0870    -0.7430    -0.9470 ca         1 2DZ      -0.057000
     31 CBA          3.0830     0.1900    -0.7920 ca         1 2DZ      -0.078200
     32 NBF          2.5330     0.7520    -2.0220 no         1 2DZ       0.698200
     33 OAH          1.3550     0.6010    -2.2140 o          1 2DZ      -0.373500
     34 OAD          3.3060     1.2820    -2.7780 o          1 2DZ      -0.373500
     35 H2          -2.0950     2.7040     0.8790 h1         1 2DZ       0.077700
     36 H3          -3.8080     2.6990     0.4970 h1         1 2DZ       0.077700
     37 H4          -5.4820     1.5110    -0.6060 ha         1 2DZ       0.125000
     38 H5          -7.2520    -0.1440    -0.7250 ha         1 2DZ       0.104000
     39 H6          -8.7820    -1.6390     0.1700 h1         1 2DZ       0.030367
     40 H7          -8.2840    -2.0500    -1.4860 h1         1 2DZ       0.030367
     41 H8          -8.8990    -3.3110    -0.4040 h1         1 2DZ       0.030367
     42 H9          -4.6660    -3.1840     0.8860 ha         1 2DZ       0.120000
     43 H10         -1.9340    -2.1120     1.4860 ha         1 2DZ       0.212000
     44 H11         -0.8020     1.8620    -0.9440 ho         1 2DZ       0.556000
     45 H12          2.8250     0.2240     2.5630 ha         1 2DZ       0.163000
     46 H13          4.5440    -1.4830     2.3310 ha         1 2DZ       0.130000
     47 H14          4.4400    -0.9930    -1.9390 ha         1 2DZ       0.142000
@<TRIPOS>BOND
     1     1     2 1   
     2     1    44 1   
     3     2     3 2   
     4     2     4 1   
     5     4     5 1   
     6     4    35 1   
     7     4    36 1   
     8     5     6 1   
     9     5    15 1   
    10     6     7 ar  
    11     6    13 ar  
    12     7     8 ar  
    13     7    37 1   
    14     8     9 ar  
    15     8    38 1   
    16     9    10 1   
    17     9    12 ar  
    18    10    11 1   
    19    11    39 1   
    20    11    40 1   
    21    11    41 1   
    22    12    13 ar  
    23    12    42 1   
    24    13    14 1   
    25    14    15 2   
    26    14    43 1   
    27    15    16 1   
    28    16    17 1   
    29    16    18 2   
    30    18    19 1   
    31    19    20 2   
    32    19    21 2   
    33    19    22 1   
    34    22    23 ar  
    35    22    31 ar  
    36    23    24 ar  
    37    23    45 1   
    38    24    25 ar  
    39    24    46 1   
    40    25    26 1   
    41    25    30 ar  
    42    26    27 1   
    43    26    28 1   
    44    26    29 1   
    45    30    31 ar  
    46    30    47 1   
    47    31    32 1   
    48    32    33 1   
    49    32    34 1   
@<TRIPOS>SUBSTRUCTURE
     1 2DZ         1 TEMP              0 ****  ****    0 ROOT
