@<TRIPOS>MOLECULE
2DZ
   47    49     1     0     0
SMALL
No Charge or Current Charge


@<TRIPOS>ATOM
      1 O           -1.0650     0.8270    -2.7430 oh         1 2DZ      -0.629100
      2 C           -2.2630     1.3620    -2.4220 c          1 2DZ       0.615100
      3 OXT         -3.0530     1.6780    -3.2950 o          1 2DZ      -0.515000
      4 CA          -2.5270     1.5630    -0.9250 c3         1 2DZ      -0.045400
      5 N           -2.9040     0.3130    -0.2280 na         1 2DZ      -0.060700
      6 CBD         -4.2240    -0.0600     0.0190 ca         1 2DZ      -0.070200
      7 CAO         -5.4150     0.6230    -0.2910 ca         1 2DZ      -0.082000
      8 CAM         -6.6450     0.0280     0.0640 ca         1 2DZ      -0.179000
      9 CAX         -6.6720    -1.2350     0.7160 ca         1 2DZ       0.092100
     10 OAU         -7.8500    -1.8560     1.0800 os         1 2DZ      -0.355100
     11 CAA         -9.1380    -1.2650     0.8280 c3         1 2DZ       0.156900
     12 CAQ         -5.4620    -1.8970     1.0060 ca         1 2DZ      -0.105000
     13 CBC         -4.2630    -1.2750     0.6400 ca         1 2DZ      -0.070800
     14 CAR         -2.9150    -1.7180     0.7930 cc         1 2DZ      -0.218200
     15 CAZ         -2.0720    -0.7460     0.2510 cd         1 2DZ      -0.063300
     16 CAW         -0.5940    -0.8530     0.1820 cf         1 2DZ       0.661500
     17 OAC         -0.0670    -1.9450     0.3980 o          1 2DZ      -0.680300
     18 NAT          0.0940     0.0970    -0.3480 ne         1 2DZ      -0.713600
     19 SBH          0.9370     0.9520     0.7890 sy         1 2DZ       1.192100
     20 OAE          0.9060     2.3590     0.3750 o          1 2DZ      -0.571500
     21 OAF          0.4650     0.5820     2.1300 o          1 2DZ      -0.571500
     22 CBB          2.6210     0.2970     0.5840 ca         1 2DZ      -0.157500
     23 CAN          3.0600    -0.7080     1.4720 ca         1 2DZ      -0.011000
     24 CAL          4.3630    -1.2250     1.3860 ca         1 2DZ      -0.066000
     25 CAY          5.2640    -0.7470     0.4130 ca         1 2DZ      -0.179300
     26 CBG          6.6850    -1.3140     0.3130 c3         1 2DZ       0.357300
     27 FAJ          6.7440    -2.3360    -0.5690 f          1 2DZ      -0.115000
     28 FAK          7.5790    -0.3850    -0.0970 f          1 2DZ      -0.115000
     29 FAI          7.1380    -1.7870     1.4970 f          1 2DZ      -0.115000
     30 CAP          4.8260     0.2430    -0.4910 ca         1 2DZ      -0.057000
     31 CBA          3.5150     0.7650    -0.4240 ca         1 2DZ      -0.078200
     32 NBF          3.1180     1.7910    -1.4330 no         1 2DZ       0.698200
     33 OAH          2.2600     1.4700    -2.2630 o          1 2DZ      -0.373500
     34 OAD          3.8560     2.7780    -1.5570 o          1 2DZ      -0.373500
     35 H2          -1.6430     2.0050    -0.4570 h1         1 2DZ       0.077700
     36 H3          -3.3310     2.3000    -0.8250 h1         1 2DZ       0.077700
     37 H4          -5.4030     1.5860    -0.7950 ha         1 2DZ       0.125000
     38 H5          -7.5630     0.5570    -0.1750 ha         1 2DZ       0.104000
     39 H6          -9.2300    -0.2980     1.3390 h1         1 2DZ       0.030367
     40 H7          -9.2930    -1.1120    -0.2470 h1         1 2DZ       0.030367
     41 H8          -9.9360    -1.9220     1.1970 h1         1 2DZ       0.030367
     42 H9          -5.4620    -2.8660     1.4980 ha         1 2DZ       0.120000
     43 H10         -2.5830    -2.6550     1.2340 ha         1 2DZ       0.212000
     44 H11         -0.6310     0.6270    -1.8740 ho         1 2DZ       0.556000
     45 H12          2.3930    -1.0980     2.2390 ha         1 2DZ       0.163000
     46 H13          4.6670    -2.0030     2.0840 ha         1 2DZ       0.130000
     47 H14          5.5020     0.6040    -1.2650 ha         1 2DZ       0.142000
@<TRIPOS>BOND
     1     1     2 1   
     2     1    44 1   
     3     2     3 2   
     4     2     4 1   
     5     4     5 1   
     6     4    35 1   
     7     4    36 1   
     8     5     6 1   
     9     5    15 1   
    10     6     7 ar  
    11     6    13 ar  
    12     7     8 ar  
    13     7    37 1   
    14     8     9 ar  
    15     8    38 1   
    16     9    10 1   
    17     9    12 ar  
    18    10    11 1   
    19    11    39 1   
    20    11    40 1   
    21    11    41 1   
    22    12    13 ar  
    23    12    42 1   
    24    13    14 1   
    25    14    15 2   
    26    14    43 1   
    27    15    16 1   
    28    16    17 1   
    29    16    18 2   
    30    18    19 1   
    31    19    20 2   
    32    19    21 2   
    33    19    22 1   
    34    22    23 ar  
    35    22    31 ar  
    36    23    24 ar  
    37    23    45 1   
    38    24    25 ar  
    39    24    46 1   
    40    25    26 1   
    41    25    30 ar  
    42    26    27 1   
    43    26    28 1   
    44    26    29 1   
    45    30    31 ar  
    46    30    47 1   
    47    31    32 1   
    48    32    33 1   
    49    32    34 1   
@<TRIPOS>SUBSTRUCTURE
     1 2DZ         1 TEMP              0 ****  ****    0 ROOT
