@<TRIPOS>MOLECULE
2E1
   45    47     1     0     0
SMALL
bcc


@<TRIPOS>ATOM
      1 C19         -0.0580    -3.4090     1.1840 c6         1 2E1       0.152300
      2 C20         -0.3110    -1.9420     0.8820 c6         1 2E1       0.211800
      3 C17          0.8400    -2.1970    -1.2230 c6         1 2E1       0.211800
      4 C16          1.0640    -3.6660    -0.9170 c6         1 2E1       0.152300
      5 N21          0.7460    -1.4530     0.0190 nh         1 2E1      -0.637000
      6 C3           0.9990    -0.0880    -0.0270 cc         1 2E1       0.039300
      7 C2           2.2630     0.5430    -0.1590 cc         1 2E1       0.250800
      8 C8           3.6030    -0.0700    -0.3060 c          1 2E1       0.602600
      9 N24         -0.0030    -4.1540    -0.0610 n7         1 2E1      -0.812200
     10 O9           3.7570    -1.2750    -0.4700 o          1 2E1      -0.604100
     11 N10          4.6320     0.7880    -0.2360 ns         1 2E1      -0.569900
     12 C26          6.0100     0.3640    -0.3650 c3         1 2E1       0.109000
     13 C27          6.9460     1.5470    -0.2010 c3         1 2E1      -0.111100
     14 N1           2.1420     1.8620    -0.0900 nd         1 2E1      -0.518800
     15 N5           0.8650     2.0910     0.0920 na         1 2E1       0.036400
     16 C4           0.1100     0.9690     0.1220 cd         1 2E1      -0.095300
     17 C6          -1.3450     1.0040     0.2720 ca         1 2E1      -0.100000
     18 C11         -2.1610     0.4600    -0.7100 ca         1 2E1      -0.013000
     19 C12         -3.5360     0.4560    -0.5760 ca         1 2E1      -0.117600
     20 CL25        -4.5360    -0.2310    -1.8170 cl         1 2E1      -0.102400
     21 C13         -4.1400     1.0100     0.5540 ca         1 2E1       0.210100
     22 O24         -5.4630     1.0410     0.7430 oh         1 2E1      -0.483100
     23 C14         -3.3300     1.5590     1.5420 ca         1 2E1      -0.271000
     24 C15         -1.9490     1.5560     1.4100 ca         1 2E1       0.194100
     25 O23         -1.1390     2.0590     2.3530 oh         1 2E1      -0.484100
     26 H191        -0.8740    -3.7970     1.7990 h1         1 2E1       0.040700
     27 H192         0.8680    -3.4910     1.7750 h1         1 2E1       0.040700
     28 H201        -0.3130    -1.3690     1.8110 h1         1 2E1       0.039950
     29 H202        -1.3090    -1.8430     0.4320 h1         1 2E1       0.039950
     30 H171        -0.0760    -2.0850    -1.8260 h1         1 2E1       0.039950
     31 H172         1.6700    -1.8160    -1.8130 h1         1 2E1       0.039950
     32 H161         1.0640    -4.2360    -1.8480 h1         1 2E1       0.040700
     33 H162         2.0610    -3.7720    -0.4630 h1         1 2E1       0.040700
     34 H24          0.1410    -5.1350     0.1370 hn         1 2E1       0.352800
     35 H10          4.4360     1.7680    -0.1060 hn         1 2E1       0.330500
     36 H261         6.1700    -0.1020    -1.3410 h1         1 2E1       0.047700
     37 H262         6.2350    -0.3970     0.3870 h1         1 2E1       0.047700
     38 H271         7.9800     1.2180    -0.2950 hc         1 2E1       0.040700
     39 H272         6.7660     2.3040    -0.9650 hc         1 2E1       0.040700
     40 H273         6.8320     2.0140     0.7780 hc         1 2E1       0.040700
     41 H5           0.5340     3.0410     0.1670 hn         1 2E1       0.326700
     42 H11         -1.7100     0.0310    -1.5960 ha         1 2E1       0.161000
     43 HA          -5.9310     0.6470    -0.0050 ho         1 2E1       0.446000
     44 H14         -3.7970     1.9840     2.4240 ha         1 2E1       0.155000
     45 H23         -1.6500     2.4130     3.0910 ho         1 2E1       0.435000
@<TRIPOS>BOND
     1     1     2 1   
     2     1     9 1   
     3     1    26 1   
     4     1    27 1   
     5     2     5 1   
     6     2    28 1   
     7     2    29 1   
     8     3     4 1   
     9     3     5 1   
    10     3    30 1   
    11     3    31 1   
    12     4     9 1   
    13     4    32 1   
    14     4    33 1   
    15     5     6 1   
    16     6     7 1   
    17     6    16 2   
    18     7     8 1   
    19     7    14 2   
    20     8    10 2   
    21     8    11 1   
    22     9    34 1   
    23    11    12 1   
    24    11    35 1   
    25    12    13 1   
    26    12    36 1   
    27    12    37 1   
    28    13    38 1   
    29    13    39 1   
    30    13    40 1   
    31    14    15 1   
    32    15    16 1   
    33    15    41 1   
    34    16    17 1   
    35    17    18 ar  
    36    17    24 ar  
    37    18    19 ar  
    38    18    42 1   
    39    19    20 1   
    40    19    21 ar  
    41    21    22 1   
    42    21    23 ar  
    43    22    43 1   
    44    23    24 ar  
    45    23    44 1   
    46    24    25 1   
    47    25    45 1   
@<TRIPOS>SUBSTRUCTURE
     1 2E1         1 TEMP              0 ****  ****    0 ROOT
