@<TRIPOS>MOLECULE
2E1
   45    47     1     0     0
SMALL
No Charge or Current Charge


@<TRIPOS>ATOM
      1 C19          0.4570    -3.6260     1.0130 c6         1 2E1       0.152300
      2 C20         -0.0810    -2.1570     0.9760 c6         1 2E1       0.211800
      3 C17          0.6710    -2.0090    -1.4350 c6         1 2E1       0.211800
      4 C16          1.1460    -3.5020    -1.3390 c6         1 2E1       0.152300
      5 N21          0.5640    -1.3350    -0.0990 nh         1 2E1      -0.775400
      6 C3           0.8880     0.0040     0.0930 cc         1 2E1       0.243000
      7 C2           2.2010     0.5710     0.0990 cc         1 2E1       0.185500
      8 C8           3.4680    -0.2060    -0.1590 c          1 2E1       0.535600
      9 N24          0.4040    -4.3000    -0.3170 n7         1 2E1      -0.867400
     10 O9           3.5680    -1.4020    -0.4050 o          1 2E1      -0.604100
     11 N10          4.6000     0.5860    -0.0910 ns         1 2E1      -0.502900
     12 C26          5.9670     0.1120    -0.2950 c3         1 2E1       0.109000
     13 C27          6.9870     1.2530    -0.1550 c3         1 2E1      -0.111100
     14 N1           2.2000     1.8700     0.3890 nd         1 2E1      -0.518800
     15 N5           0.8540     2.1400     0.5920 na         1 2E1       0.036800
     16 C4           0.0210     1.0270     0.4190 cd         1 2E1      -0.146000
     17 C6          -1.4720     1.0900     0.4620 ca         1 2E1      -0.100000
     18 C11         -2.2570     0.1010    -0.1760 ca         1 2E1       0.005000
     19 C12         -3.6590     0.1480    -0.1480 ca         1 2E1      -0.026000
     20 Cl25        -4.5830    -1.1160    -0.9610 cl         1 2E1      -0.194000
     21 C13         -4.3110     1.2010     0.5130 ca         1 2E1       0.210100
     22 O24         -5.6730     1.2660     0.5510 oh         1 2E1      -0.522100
     23 C14         -3.5610     2.2050     1.1290 ca         1 2E1      -0.253000
     24 C15         -2.1580     2.1620     1.1020 ca         1 2E1       0.194100
     25 O23         -1.4830     3.1700     1.7300 oh         1 2E1      -0.523100
     26 H191        -0.1250    -4.2070     1.7440 h1         1 2E1       0.040700
     27 H192         1.5000    -3.6090     1.3660 h1         1 2E1       0.040700
     28 H201         0.0850    -1.6920     1.9590 h1         1 2E1       0.039950
     29 H202        -1.1680    -2.1950     0.8210 h1         1 2E1       0.039950
     30 H171        -0.3100    -1.9930    -1.9300 h1         1 2E1       0.039950
     31 H172         1.3620    -1.4570    -2.0890 h1         1 2E1       0.039950
     32 H161         1.0410    -3.9790    -2.3250 h1         1 2E1       0.040700
     33 H162         2.2160    -3.5190    -1.0880 h1         1 2E1       0.040700
     34 H24          0.8370    -5.2290    -0.2400 hn         1 2E1       0.408000
     35 H10          4.4420     1.5660     0.1200 hn         1 2E1       0.330500
     36 H261         6.0450    -0.3290    -1.2980 h1         1 2E1       0.047700
     37 H262         6.1870    -0.6700     0.4450 h1         1 2E1       0.047700
     38 H271         8.0040     0.8750    -0.3120 hc         1 2E1       0.040700
     39 H272         6.7940     2.0380    -0.8960 hc         1 2E1       0.040700
     40 H273         6.9360     1.6980     0.8460 hc         1 2E1       0.040700
     41 H5           0.5300     3.0740     0.8440 hn         1 2E1       0.377000
     42 H11         -1.7930    -0.7000    -0.7370 ha         1 2E1       0.143000
     43 HA          -6.0190     0.4870     0.0640 ho         1 2E1       0.485000
     44 H14         -4.0790     3.0190     1.6290 ha         1 2E1       0.137000
     45 H23         -2.1410     3.7670     2.1460 ho         1 2E1       0.474000
@<TRIPOS>BOND
     1     1     2 1   
     2     1     9 1   
     3     1    26 1   
     4     1    27 1   
     5     2     5 1   
     6     2    28 1   
     7     2    29 1   
     8     3     4 1   
     9     3     5 1   
    10     3    30 1   
    11     3    31 1   
    12     4     9 1   
    13     4    32 1   
    14     4    33 1   
    15     5     6 1   
    16     6     7 1   
    17     6    16 2   
    18     7     8 1   
    19     7    14 2   
    20     8    10 2   
    21     8    11 1   
    22     9    34 1   
    23    11    12 1   
    24    11    35 1   
    25    12    13 1   
    26    12    36 1   
    27    12    37 1   
    28    13    38 1   
    29    13    39 1   
    30    13    40 1   
    31    14    15 1   
    32    15    16 1   
    33    15    41 1   
    34    16    17 1   
    35    17    18 ar  
    36    17    24 ar  
    37    18    19 ar  
    38    18    42 1   
    39    19    20 1   
    40    19    21 ar  
    41    21    22 1   
    42    21    23 ar  
    43    22    43 1   
    44    23    24 ar  
    45    23    44 1   
    46    24    25 1   
    47    25    45 1   
@<TRIPOS>SUBSTRUCTURE
     1 2E1         1 TEMP              0 ****  ****    0 ROOT
