@<TRIPOS>MOLECULE
2E2
   47    50     1     0     0
SMALL
No Charge or Current Charge


@<TRIPOS>ATOM
      1 O2           3.0780    -2.8000     2.7650 o          1 2E2      -0.578000
      2 C2           3.2490    -2.3790     1.6330 c          1 2E2       0.616000
      3 N3           4.4880    -2.0140     1.2130 ns         1 2E2      -0.466500
      4 C4           4.8560    -1.5220     0.0030 c          1 2E2       0.600200
      5 O4           6.0200    -1.2350    -0.2290 o          1 2E2      -0.580000
      6 C5           3.7430    -1.3790    -0.9590 cc         1 2E2      -0.316400
      7 CAR          4.1030    -0.8300    -2.3190 c3         1 2E2      -0.003900
      8 C6           2.4650    -1.7400    -0.5850 cd         1 2E2       0.046600
      9 N1           2.2140    -2.2350     0.6950 n          1 2E2      -0.306000
     10 CAJ          0.8420    -2.6140     1.1020 c5         1 2E2       0.335700
     11 OAF          0.0930    -3.1740     0.0020 os         1 2E2      -0.497000
     12 CAI          0.0910    -1.3150     1.4500 c5         1 2E2      -0.165400
     13 CAG         -1.3370    -1.9110     1.4340 c5         1 2E2       0.169300
     14 OAH         -2.3730    -0.8790     1.3890 os         1 2E2      -0.393000
     15 CAE         -1.3020    -2.7710     0.1290 c5         1 2E2       0.083300
     16 CAC         -1.6880    -1.9880    -1.1470 c6         1 2E2       0.128600
     17 OAD         -2.8210    -1.1270    -0.9240 os         1 2E2      -0.395000
     18 CAB         -2.7030    -0.1500     0.1580 c6         1 2E2       0.198300
     19 PAA         -4.3910     0.8080     0.3730 p5         1 2E2       1.280500
     20 OBB         -5.5140    -0.1540     0.6210 o          1 2E2      -0.904167
     21 OBA         -4.3400     1.7540     1.5340 o          1 2E2      -0.904167
     22 OBC         -4.7290     1.5950    -0.8570 o          1 2E2      -0.904167
     23 CAU         -1.6280     0.9310    -0.1610 ca         1 2E2      -0.100300
     24 CAV         -1.2440     1.2270    -1.4880 ca         1 2E2      -0.102000
     25 CAW         -0.2770     2.2110    -1.7570 ca         1 2E2      -0.115500
     26 CAX          0.3260     2.9460    -0.7100 ca         1 2E2      -0.161600
     27 CCA          1.3750     4.0130    -1.0010 c          1 2E2       0.718600
     28 OCB          1.8770     4.6180    -0.0640 o          1 2E2      -0.763500
     29 OCA          1.6810     4.2360    -2.1640 o          1 2E2      -0.763500
     30 CAY         -0.0850     2.6710     0.6150 ca         1 2E2      -0.115500
     31 CAZ         -1.0530     1.6870     0.8820 ca         1 2E2      -0.102000
     32 H1           5.2280    -2.1200     1.8880 hn         1 2E2       0.324500
     33 H2           4.8280    -1.4780    -2.8260 hc         1 2E2       0.034033
     34 H3           3.2190    -0.7530    -2.9640 hc         1 2E2       0.034033
     35 H4           4.5400     0.1720    -2.2360 hc         1 2E2       0.034033
     36 H5           1.5910    -1.6680    -1.2290 h4         1 2E2       0.233000
     37 H6           0.8790    -3.3180     1.9440 h2         1 2E2       0.061700
     38 H7           0.3750    -0.9110     2.4260 hc         1 2E2       0.086700
     39 H8           0.2680    -0.5540     0.6890 hc         1 2E2       0.086700
     40 H9          -1.5080    -2.5410     2.3180 h1         1 2E2       0.039700
     41 H10         -1.9410    -3.6590     0.2190 h1         1 2E2       0.082700
     42 H11         -0.8380    -1.3800    -1.4840 h1         1 2E2       0.021700
     43 H12         -1.9340    -2.6900    -1.9550 h1         1 2E2       0.021700
     44 H15         -1.6960     0.6960    -2.3220 ha         1 2E2       0.104500
     45 H16          0.0000     2.4020    -2.7910 ha         1 2E2       0.095500
     46 H18          0.3440     3.2220     1.4480 ha         1 2E2       0.095500
     47 H19         -1.3490     1.5040     1.9120 ha         1 2E2       0.104500
@<TRIPOS>BOND
     1     1     2 2   
     2     2     3 1   
     3     2     9 1   
     4     3     4 1   
     5     3    32 1   
     6     4     5 2   
     7     4     6 1   
     8     6     7 1   
     9     6     8 2   
    10     7    33 1   
    11     7    34 1   
    12     7    35 1   
    13     8     9 1   
    14     8    36 1   
    15     9    10 1   
    16    10    11 1   
    17    10    12 1   
    18    10    37 1   
    19    11    15 1   
    20    12    13 1   
    21    12    38 1   
    22    12    39 1   
    23    13    14 1   
    24    13    15 1   
    25    13    40 1   
    26    14    18 1   
    27    15    16 1   
    28    15    41 1   
    29    16    17 1   
    30    16    42 1   
    31    16    43 1   
    32    17    18 1   
    33    18    19 1   
    34    18    23 1   
    35    19    20 1   
    36    19    21 1   
    37    19    22 1   
    38    23    24 ar  
    39    23    31 ar  
    40    24    25 ar  
    41    24    44 1   
    42    25    26 ar  
    43    25    45 1   
    44    26    27 1   
    45    26    30 ar  
    46    27    28 1   
    47    27    29 1   
    48    30    31 ar  
    49    30    46 1   
    50    31    47 1   
@<TRIPOS>SUBSTRUCTURE
     1 2E2         1 TEMP              0 ****  ****    0 ROOT
