@<TRIPOS>MOLECULE
2E2
   47    50     1     0     0
SMALL
bcc


@<TRIPOS>ATOM
      1 O2           3.0050    -1.8960     2.7620 o          1 2E2      -0.653500
      2 C2           3.1860    -1.9190     1.5600 c          1 2E2       0.825500
      3 N3           4.3930    -1.6080     0.9930 ns         1 2E2      -0.600500
      4 C4           4.7140    -1.5690    -0.3520 c          1 2E2       0.742700
      5 O4           5.8360    -1.2600    -0.7130 o          1 2E2      -0.655500
      6 C5           3.6220    -1.9230    -1.2350 cc         1 2E2      -0.316400
      7 CAR          3.8570    -1.9290    -2.7100 c3         1 2E2      -0.003900
      8 C6           2.4380    -2.2470    -0.6820 cd         1 2E2       0.096600
      9 N1           2.2020    -2.2550     0.6640 n          1 2E2      -0.373000
     10 CAJ          0.8780    -2.5780     1.2330 c5         1 2E2       0.312500
     11 OAF          0.1140    -3.2490     0.2690 os         1 2E2      -0.450600
     12 CAI          0.0870    -1.3440     1.6550 c5         1 2E2      -0.165400
     13 CAG         -1.3490    -1.7900     1.3650 c5         1 2E2       0.146100
     14 OAH         -2.3380    -0.8040     1.2580 os         1 2E2      -0.346600
     15 CAE         -1.1550    -2.6290     0.1040 c5         1 2E2       0.060100
     16 CAC         -1.2050    -1.7220    -1.1130 c6         1 2E2       0.105400
     17 OAD         -2.4050    -0.9860    -1.0590 os         1 2E2      -0.348600
     18 CAB         -2.4980    -0.1080     0.0350 c6         1 2E2       0.309700
     19 PAA         -4.2860     0.5590     0.0430 p5         1 2E2       1.122700
     20 OBB         -5.1480    -0.6960     0.1770 o          1 2E2      -0.904167
     21 OBA         -4.3220     1.4820     1.2600 o          1 2E2      -0.904167
     22 OBC         -4.4090     1.2690    -1.3040 o          1 2E2      -0.904167
     23 CAU         -1.5330     1.0430    -0.0870 ca         1 2E2      -0.100300
     24 CAV         -1.1480     1.5310    -1.3340 ca         1 2E2      -0.120000
     25 CAW         -0.3160     2.6360    -1.4450 ca         1 2E2      -0.133500
     26 CAX          0.1400     3.3130    -0.3170 ca         1 2E2      -0.161600
     27 CCA          1.0500     4.5240    -0.4370 c          1 2E2       0.929200
     28 OCB          1.3930     5.0780     0.6270 o          1 2E2      -0.868800
     29 OCA          1.3820     4.8680    -1.5890 o          1 2E2      -0.868800
     30 CAY         -0.2710     2.8420     0.9280 ca         1 2E2      -0.133500
     31 CAZ         -1.0970     1.7350     1.0420 ca         1 2E2      -0.120000
     32 H1           5.1280    -1.3630     1.6460 hn         1 2E2       0.324500
     33 H2           4.6480    -2.6280    -2.9860 hc         1 2E2       0.034033
     34 H3           2.9540    -2.2190    -3.2440 hc         1 2E2       0.034033
     35 H4           4.1560    -0.9440    -3.0700 hc         1 2E2       0.034033
     36 H5           1.6050    -2.5390    -1.3030 h4         1 2E2       0.183000
     37 H6           1.0610    -3.2490     2.0760 h2         1 2E2       0.061700
     38 H7           0.2500    -1.0930     2.7010 hc         1 2E2       0.086700
     39 H8           0.3740    -0.4780     1.0570 hc         1 2E2       0.086700
     40 H9          -1.6780    -2.4420     2.1810 h1         1 2E2       0.039700
     41 H10         -1.9050    -3.4180     0.0130 h1         1 2E2       0.082700
     42 H11         -0.3250    -1.0630    -1.1430 h1         1 2E2       0.021700
     43 H12         -1.2100    -2.3000    -2.0400 h1         1 2E2       0.021700
     44 H15         -1.4930     1.0400    -2.2340 ha         1 2E2       0.122500
     45 H16         -0.0230     2.9830    -2.4280 ha         1 2E2       0.113500
     46 H18          0.0610     3.3530     1.8230 ha         1 2E2       0.113500
     47 H19         -1.3950     1.3970     2.0250 ha         1 2E2       0.122500
@<TRIPOS>BOND
     1     1     2 2   
     2     2     3 1   
     3     2     9 1   
     4     3     4 1   
     5     3    32 1   
     6     4     5 2   
     7     4     6 1   
     8     6     7 1   
     9     6     8 2   
    10     7    33 1   
    11     7    34 1   
    12     7    35 1   
    13     8     9 1   
    14     8    36 1   
    15     9    10 1   
    16    10    11 1   
    17    10    12 1   
    18    10    37 1   
    19    11    15 1   
    20    12    13 1   
    21    12    38 1   
    22    12    39 1   
    23    13    14 1   
    24    13    15 1   
    25    13    40 1   
    26    14    18 1   
    27    15    16 1   
    28    15    41 1   
    29    16    17 1   
    30    16    42 1   
    31    16    43 1   
    32    17    18 1   
    33    18    19 1   
    34    18    23 1   
    35    19    20 1   
    36    19    21 1   
    37    19    22 1   
    38    23    24 ar  
    39    23    31 ar  
    40    24    25 ar  
    41    24    44 1   
    42    25    26 ar  
    43    25    45 1   
    44    26    27 1   
    45    26    30 ar  
    46    27    28 1   
    47    27    29 1   
    48    30    31 ar  
    49    30    46 1   
    50    31    47 1   
@<TRIPOS>SUBSTRUCTURE
     1 2E2         1 TEMP              0 ****  ****    0 ROOT
