@<TRIPOS>MOLECULE
2E3
   54    56     1     0     0
SMALL
No Charge or Current Charge


@<TRIPOS>ATOM
      1 CAA         -0.5720     2.8600    -1.4150 c3         1 2E3      -0.048800
      2 CAS         -1.2180     1.6360    -0.7720 ca         1 2E3      -0.067300
      3 CAN         -2.5660     1.3570    -1.0540 ca         1 2E3      -0.119000
      4 CAX         -3.2230     0.2240    -0.5220 ca         1 2E3      -0.061300
      5 CAZ         -4.7110    -0.0240    -0.8950 c6         1 2E3       0.003300
      6 CAB         -5.5880     1.0460    -0.1720 c3         1 2E3      -0.080100
      7 CAC         -4.9550     0.1460    -2.4310 c3         1 2E3      -0.080100
      8 CAP         -5.1720    -1.4580    -0.5080 c6         1 2E3      -0.065400
      9 CAQ         -4.7130    -1.8450     0.9070 c6         1 2E3      -0.066400
     10 CBA         -3.1630    -1.8760     1.0250 c6         1 2E3       0.003300
     11 CAD         -2.5860    -3.1550     0.3400 c3         1 2E3      -0.082100
     12 CAE         -2.8090    -1.9730     2.5450 c3         1 2E3      -0.082100
     13 CAY         -2.5090    -0.6300     0.3670 ca         1 2E3      -0.068300
     14 CAO         -1.1480    -0.3490     0.6270 ca         1 2E3      -0.094000
     15 CAV         -0.4910     0.7720     0.0810 cp         1 2E3      -0.035000
     16 CAW          0.9420     1.0150     0.4160 cp         1 2E3      -0.141000
     17 CAM          1.9470     0.1920    -0.1450 ca         1 2E3      -0.075000
     18 CAU          1.3320     2.0460     1.3030 ca         1 2E3       0.117100
     19 OAH          0.3960     2.8420     1.8910 oh         1 2E3      -0.552100
     20 CAL          2.6860     2.2530     1.6020 ca         1 2E3      -0.152000
     21 CAK          3.6730     1.4330     1.0280 ca         1 2E3      -0.082000
     22 CAT          3.3110     0.3910     0.1500 ca         1 2E3      -0.032800
     23 CAJ          4.3320    -0.5010    -0.4740 ce         1 2E3      -0.236200
     24 CAI          5.6960    -0.4900    -0.3360 cf         1 2E3      -0.216200
     25 CAR          6.6430    -1.4310    -1.0060 c          1 2E3       0.695200
     26 OAG          7.8340    -1.2880    -0.7780 o          1 2E3      -0.724000
     27 OAF          6.1970    -2.2950    -1.7460 o          1 2E3      -0.724000
     28 HAA          0.4570     2.6500    -1.7320 hc         1 2E3       0.045367
     29 HAAA        -1.1210     3.1850    -2.3070 hc         1 2E3       0.045367
     30 HAAB        -0.5440     3.7040    -0.7180 hc         1 2E3       0.045367
     31 HAN         -3.1090     2.0380    -1.7010 ha         1 2E3       0.104000
     32 HAB         -5.3440     2.0610    -0.5100 hc         1 2E3       0.032700
     33 HABA        -6.6560     0.8870    -0.3630 hc         1 2E3       0.032700
     34 HABB        -5.4380     1.0270     0.9130 hc         1 2E3       0.032700
     35 HAC         -4.2690    -0.4830    -3.0110 hc         1 2E3       0.032700
     36 HACA        -5.9770    -0.1460    -2.7040 hc         1 2E3       0.032700
     37 HACB        -4.8240     1.1790    -2.7700 hc         1 2E3       0.032700
     38 HAP         -6.2660    -1.5340    -0.5720 hc         1 2E3       0.039700
     39 HAPA        -4.7840    -2.1880    -1.2310 hc         1 2E3       0.039700
     40 HAQ         -5.1320    -1.1380     1.6350 hc         1 2E3       0.037700
     41 HAQA        -5.1320    -2.8250     1.1740 hc         1 2E3       0.037700
     42 HAD         -2.7470    -3.1430    -0.7440 hc         1 2E3       0.035533
     43 HADA        -1.5050    -3.2440     0.5000 hc         1 2E3       0.035533
     44 HADB        -3.0500    -4.0670     0.7350 hc         1 2E3       0.035533
     45 HAE         -3.3630    -2.7870     3.0290 hc         1 2E3       0.035533
     46 HAEA        -1.7460    -2.1690     2.7220 hc         1 2E3       0.035533
     47 HAEB        -3.0660    -1.0450     3.0690 hc         1 2E3       0.035533
     48 HAO         -0.5690    -1.0070     1.2680 ha         1 2E3       0.121000
     49 HAM          1.6550    -0.6070    -0.8220 ha         1 2E3       0.117000
     50 HOAH        -0.4810     2.5400     1.5710 ho         1 2E3       0.462000
     51 HAL          2.9750     3.0480     2.2850 ha         1 2E3       0.113000
     52 HAK          4.7150     1.6130     1.2770 ha         1 2E3       0.120000
     53 HAJ          3.9050    -1.2630    -1.1300 ha         1 2E3       0.190000
     54 HAI          6.1650     0.2510     0.3060 ha         1 2E3       0.142000
@<TRIPOS>BOND
     1     1     2 1   
     2     1    28 1   
     3     1    29 1   
     4     1    30 1   
     5     2     3 ar  
     6     2    15 ar  
     7     3     4 ar  
     8     3    31 1   
     9     4     5 1   
    10     4    13 ar  
    11     5     6 1   
    12     5     7 1   
    13     5     8 1   
    14     6    32 1   
    15     6    33 1   
    16     6    34 1   
    17     7    35 1   
    18     7    36 1   
    19     7    37 1   
    20     8     9 1   
    21     8    38 1   
    22     8    39 1   
    23     9    10 1   
    24     9    40 1   
    25     9    41 1   
    26    10    11 1   
    27    10    12 1   
    28    10    13 1   
    29    11    42 1   
    30    11    43 1   
    31    11    44 1   
    32    12    45 1   
    33    12    46 1   
    34    12    47 1   
    35    13    14 ar  
    36    14    15 ar  
    37    14    48 1   
    38    15    16 1   
    39    16    17 ar  
    40    16    18 ar  
    41    17    22 ar  
    42    17    49 1   
    43    18    19 1   
    44    18    20 ar  
    45    19    50 1   
    46    20    21 ar  
    47    20    51 1   
    48    21    22 ar  
    49    21    52 1   
    50    22    23 1   
    51    23    24 2   
    52    23    53 1   
    53    24    25 1   
    54    24    54 1   
    55    25    26 1   
    56    25    27 1   
@<TRIPOS>SUBSTRUCTURE
     1 2E3         1 TEMP              0 ****  ****    0 ROOT
