@<TRIPOS>MOLECULE
2E3
   54    56     1     0     0
SMALL
bcc


@<TRIPOS>ATOM
      1 CAA         -0.5540     2.8260    -1.3750 c3         1 2E3      -0.048800
      2 CAS         -1.2100     1.6290    -0.7480 ca         1 2E3      -0.067300
      3 CAN         -2.5310     1.3230    -1.0350 ca         1 2E3      -0.137000
      4 CAX         -3.1990     0.2120    -0.5120 ca         1 2E3      -0.061300
      5 CAZ         -4.6530    -0.0220    -0.9070 c6         1 2E3       0.003300
      6 CAB         -5.5320     0.9950    -0.1630 c3         1 2E3      -0.080100
      7 CAC         -4.8590     0.1590    -2.4150 c3         1 2E3      -0.080100
      8 CAP         -5.0740    -1.4500    -0.5480 c6         1 2E3      -0.065400
      9 CAQ         -4.6500    -1.8410     0.8520 c6         1 2E3      -0.066400
     10 CBA         -3.1270    -1.8580     1.0160 c6         1 2E3       0.003300
     11 CAD         -2.5420    -3.1090     0.3470 c3         1 2E3      -0.082100
     12 CAE         -2.8230    -1.9170     2.5180 c3         1 2E3      -0.082100
     13 CAY         -2.5090    -0.6230     0.3750 ca         1 2E3      -0.068300
     14 CAO         -1.1740    -0.3240     0.6530 ca         1 2E3      -0.112000
     15 CAV         -0.5140     0.7720     0.1160 cp         1 2E3      -0.035000
     16 CAW          0.9160     0.9990     0.4430 cp         1 2E3      -0.141000
     17 CAM          1.9030     0.1730    -0.0830 ca         1 2E3      -0.093000
     18 CAU          1.2980     2.0380     1.2940 ca         1 2E3       0.117100
     19 OAH          0.4040     2.8620     1.8760 oh         1 2E3      -0.513100
     20 CAL          2.6480     2.2450     1.5760 ca         1 2E3      -0.170000
     21 CAK          3.6100     1.4220     1.0250 ca         1 2E3      -0.100000
     22 CAT          3.2600     0.3610     0.1830 ca         1 2E3      -0.032800
     23 CAJ          4.2310    -0.5480    -0.4240 ce         1 2E3      -0.186200
     24 CAI          5.5630    -0.4450    -0.4040 cf         1 2E3      -0.166200
     25 CAR          6.4770    -1.4440    -1.0720 c          1 2E3       0.905800
     26 OAG          7.6980    -1.1870    -1.0000 o          1 2E3      -0.829300
     27 OAF          5.9560    -2.4290    -1.6350 o          1 2E3      -0.829300
     28 HAA          0.4260     2.5800    -1.7860 hc         1 2E3       0.045367
     29 HAAA        -1.1670     3.2250    -2.1830 hc         1 2E3       0.045367
     30 HAAB        -0.4040     3.6330    -0.6550 hc         1 2E3       0.045367
     31 HAN         -3.0600     1.9850    -1.7110 ha         1 2E3       0.122000
     32 HAB         -5.2720     2.0170    -0.4440 hc         1 2E3       0.032700
     33 HABA        -6.5860     0.8400    -0.4050 hc         1 2E3       0.032700
     34 HABB        -5.4210     0.9150     0.9190 hc         1 2E3       0.032700
     35 HAC         -4.1960    -0.4930    -2.9860 hc         1 2E3       0.032700
     36 HACA        -5.8870    -0.0950    -2.6800 hc         1 2E3       0.032700
     37 HACB        -4.6890     1.1840    -2.7460 hc         1 2E3       0.032700
     38 HAP         -6.1580    -1.5380    -0.6590 hc         1 2E3       0.039700
     39 HAPA        -4.6370    -2.1460    -1.2730 hc         1 2E3       0.039700
     40 HAQ         -5.0890    -1.1490     1.5780 hc         1 2E3       0.037700
     41 HAQA        -5.0430    -2.8300     1.1060 hc         1 2E3       0.037700
     42 HAD         -2.7410    -3.1320    -0.7250 hc         1 2E3       0.035533
     43 HADA        -1.4590    -3.1550     0.4770 hc         1 2E3       0.035533
     44 HADB        -2.9700    -4.0120     0.7890 hc         1 2E3       0.035533
     45 HAE         -3.3750    -2.7440     2.9700 hc         1 2E3       0.035533
     46 HAEA        -1.7660    -2.0840     2.7290 hc         1 2E3       0.035533
     47 HAEB        -3.1270    -0.9970     3.0200 hc         1 2E3       0.035533
     48 HAO         -0.6120    -0.9740     1.3140 ha         1 2E3       0.139000
     49 HAM          1.6020    -0.6410    -0.7330 ha         1 2E3       0.135000
     50 HOAH        -0.4960     2.5720     1.6790 ho         1 2E3       0.423000
     51 HAL          2.9360     3.0530     2.2370 ha         1 2E3       0.131000
     52 HAK          4.6480     1.6070     1.2680 ha         1 2E3       0.138000
     53 HAJ          3.8020    -1.3950    -0.9520 ha         1 2E3       0.140000
     54 HAI          6.0450     0.3900     0.0970 ha         1 2E3       0.092000
@<TRIPOS>BOND
     1     1     2 1   
     2     1    28 1   
     3     1    29 1   
     4     1    30 1   
     5     2     3 ar  
     6     2    15 ar  
     7     3     4 ar  
     8     3    31 1   
     9     4     5 1   
    10     4    13 ar  
    11     5     6 1   
    12     5     7 1   
    13     5     8 1   
    14     6    32 1   
    15     6    33 1   
    16     6    34 1   
    17     7    35 1   
    18     7    36 1   
    19     7    37 1   
    20     8     9 1   
    21     8    38 1   
    22     8    39 1   
    23     9    10 1   
    24     9    40 1   
    25     9    41 1   
    26    10    11 1   
    27    10    12 1   
    28    10    13 1   
    29    11    42 1   
    30    11    43 1   
    31    11    44 1   
    32    12    45 1   
    33    12    46 1   
    34    12    47 1   
    35    13    14 ar  
    36    14    15 ar  
    37    14    48 1   
    38    15    16 1   
    39    16    17 ar  
    40    16    18 ar  
    41    17    22 ar  
    42    17    49 1   
    43    18    19 1   
    44    18    20 ar  
    45    19    50 1   
    46    20    21 ar  
    47    20    51 1   
    48    21    22 ar  
    49    21    52 1   
    50    22    23 1   
    51    23    24 2   
    52    23    53 1   
    53    24    25 1   
    54    24    54 1   
    55    25    26 1   
    56    25    27 1   
@<TRIPOS>SUBSTRUCTURE
     1 2E3         1 TEMP              0 ****  ****    0 ROOT
