@<TRIPOS>MOLECULE
2E8
   59    63     1     0     0
SMALL
abcg2


@<TRIPOS>ATOM
      1 CAL         -5.6050    -1.5760    -1.0580 c6         1 2E8      -0.072900
      2 CAN         -6.1120    -2.6140    -0.0700 c6         1 2E8       0.167800
      3 NBD         -6.2730    -2.0440     1.2540 n3         1 2E8      -0.716600
      4 CAB         -6.8440    -3.0000     2.1740 c3         1 2E8       0.153100
      5 CAO         -5.0210    -1.5120     1.7540 c6         1 2E8       0.167800
      6 CAM         -4.4680    -0.4310     0.8370 c6         1 2E8      -0.072900
      7 CBC         -4.2910    -0.9630    -0.5820 c6         1 2E8      -0.082700
      8 CAP         -3.8350     0.1110    -1.5620 c3         1 2E8       0.099600
      9 NBE         -2.5740     0.7120    -1.1940 na         1 2E8      -0.015100
     10 NAS         -1.4320     0.0180    -1.2980 nc         1 2E8      -0.519100
     11 C4          -2.3650     1.9190    -0.6380 ca         1 2E8       0.156500
     12 N3          -3.2810     2.8580    -0.3860 nb         1 2E8      -0.231000
     13 C2          -2.7480     3.9440     0.1330 ca         1 2E8       0.196900
     14 N1          -1.4650     4.1990     0.3860 nb         1 2E8      -0.314000
     15 C6          -0.5530     3.2620     0.1170 ca         1 2E8       0.456900
     16 NAC          0.7290     3.5570     0.3370 nv         1 2E8      -1.068900
     17 C5          -0.9940     2.0140    -0.3860 ca         1 2E8      -0.383900
     18 CAX         -0.4640     0.7660    -0.8190 cd         1 2E8       0.435500
     19 CAV          0.9170     0.2770    -0.7940 ca         1 2E8      -0.107900
     20 CAJ          1.7120     0.4500     0.3120 ca         1 2E8      -0.086000
     21 CAE          1.4400    -0.4150    -1.9170 ca         1 2E8      -0.073000
     22 CAG          2.7210    -0.8820    -1.9190 ca         1 2E8      -0.111000
     23 CAY          3.5670    -0.6960    -0.7960 ca         1 2E8       0.008000
     24 CAI          4.8960    -1.1580    -0.7780 ca         1 2E8      -0.156000
     25 CAZ          3.0430    -0.0220     0.3370 ca         1 2E8      -0.078000
     26 CAF          3.8780     0.1480     1.4610 ca         1 2E8      -0.061000
     27 CAD          5.1680    -0.3100     1.4670 ca         1 2E8      -0.181000
     28 CAU          5.6930    -0.9700     0.3290 ca         1 2E8       0.153100
     29 OAT          6.9510    -1.4360     0.2600 os         1 2E8      -0.350100
     30 CAK          7.8280    -1.2660     1.3670 c3         1 2E8       0.167600
     31 CAA          9.1770    -1.8240     0.9790 c3         1 2E8      -0.095100
     32 H1          -5.4790    -2.0410    -2.0390 hc         1 2E8       0.051200
     33 H2          -6.3580    -0.7880    -1.1690 hc         1 2E8       0.051200
     34 H3          -7.0780    -3.0010    -0.4030 h1         1 2E8       0.030450
     35 H4          -5.4160    -3.4730    -0.0570 h1         1 2E8       0.030450
     36 H6          -6.2110    -3.8890     2.3300 h1         1 2E8       0.029367
     37 H7          -7.0050    -2.5340     3.1470 h1         1 2E8       0.029367
     38 H8          -7.8110    -3.3450     1.8040 h1         1 2E8       0.029367
     39 H9          -5.1910    -1.0970     2.7510 h1         1 2E8       0.030450
     40 H10         -4.2620    -2.3080     1.8700 h1         1 2E8       0.030450
     41 H11         -5.1540     0.4230     0.8250 hc         1 2E8       0.051200
     42 H12         -3.5190    -0.0760     1.2450 hc         1 2E8       0.051200
     43 H13         -3.5320    -1.7560    -0.5620 hc         1 2E8       0.063700
     44 H14         -3.7330    -0.3060    -2.5660 h1         1 2E8       0.071700
     45 H15         -4.5680     0.9170    -1.6130 h1         1 2E8       0.071700
     46 H16         -3.4370     4.7450     0.3800 h5         1 2E8       0.046100
     47 H17          0.9760     4.4910     0.6150 hn         1 2E8       0.503000
     48 H18          1.4690     2.9510     0.0300 hn         1 2E8       0.503000
     49 H19          1.3190     0.9310     1.2020 ha         1 2E8       0.119000
     50 H20          0.8110    -0.5570    -2.7870 ha         1 2E8       0.127000
     51 H21          3.1080    -1.3990    -2.7890 ha         1 2E8       0.119000
     52 H22          5.2960    -1.6670    -1.6470 ha         1 2E8       0.130000
     53 H23          3.4890     0.6530     2.3360 ha         1 2E8       0.113000
     54 H24          5.7740    -0.1580     2.3490 ha         1 2E8       0.117000
     55 H25          7.9180    -0.2060     1.6240 h1         1 2E8       0.033700
     56 H26          7.4360    -1.7900     2.2450 h1         1 2E8       0.033700
     57 H27          9.5950    -1.2920     0.1240 hc         1 2E8       0.048367
     58 H28          9.8680    -1.7110     1.8140 hc         1 2E8       0.048367
     59 H29          9.1160    -2.8850     0.7350 hc         1 2E8       0.048367
@<TRIPOS>BOND
     1     1     2 1   
     2     1     7 1   
     3     1    32 1   
     4     1    33 1   
     5     2     3 1   
     6     2    34 1   
     7     2    35 1   
     8     3     4 1   
     9     3     5 1   
    10     4    36 1   
    11     4    37 1   
    12     4    38 1   
    13     5     6 1   
    14     5    39 1   
    15     5    40 1   
    16     6     7 1   
    17     6    41 1   
    18     6    42 1   
    19     7     8 1   
    20     7    43 1   
    21     8     9 1   
    22     8    44 1   
    23     8    45 1   
    24     9    10 1   
    25     9    11 1   
    26    10    18 2   
    27    11    12 ar  
    28    11    17 ar  
    29    12    13 ar  
    30    13    14 ar  
    31    13    46 1   
    32    14    15 ar  
    33    15    16 1   
    34    15    17 ar  
    35    16    47 1   
    36    16    48 1   
    37    17    18 1   
    38    18    19 1   
    39    19    20 ar  
    40    19    21 ar  
    41    20    25 ar  
    42    20    49 1   
    43    21    22 ar  
    44    21    50 1   
    45    22    23 ar  
    46    22    51 1   
    47    23    24 ar  
    48    23    25 ar  
    49    24    28 ar  
    50    24    52 1   
    51    25    26 ar  
    52    26    27 ar  
    53    26    53 1   
    54    27    28 ar  
    55    27    54 1   
    56    28    29 1   
    57    29    30 1   
    58    30    31 1   
    59    30    55 1   
    60    30    56 1   
    61    31    57 1   
    62    31    58 1   
    63    31    59 1   
@<TRIPOS>SUBSTRUCTURE
     1 2E8         1 TEMP              0 ****  ****    0 ROOT
