@<TRIPOS>MOLECULE
2E8
   59    63     1     0     0
SMALL
No Charge or Current Charge


@<TRIPOS>ATOM
      1 CAL         -5.7850    -1.6270    -1.0680 c6         1 2E8      -0.072900
      2 CAN         -6.4060    -2.6200    -0.0550 c6         1 2E8       0.167800
      3 NBD         -6.6180    -1.9840     1.2740 n3         1 2E8      -0.716600
      4 CAB         -7.3110    -2.8830     2.2210 c3         1 2E8       0.153100
      5 CAO         -5.3450    -1.4500     1.8300 c6         1 2E8       0.167800
      6 CAM         -4.6890    -0.4240     0.8730 c6         1 2E8      -0.072900
      7 CBC         -4.4530    -1.0360    -0.5350 c6         1 2E8      -0.082700
      8 CAP         -3.8460    -0.0120    -1.5400 c3         1 2E8       0.099600
      9 NBE         -2.5210     0.5170    -1.1640 na         1 2E8      -0.015100
     10 NAS         -1.3250    -0.1560    -1.4190 nc         1 2E8      -0.519100
     11 C4          -2.3180     1.7390    -0.5400 ca         1 2E8       0.156500
     12 N3          -3.1660     2.7180    -0.1670 nb         1 2E8      -0.231000
     13 C2          -2.5870     3.8210     0.3620 ca         1 2E8       0.196900
     14 N1          -1.2590     4.0400     0.5200 nb         1 2E8      -0.314000
     15 C6          -0.4460     3.0460     0.1360 ca         1 2E8       0.456900
     16 NAC          0.8730     3.3050     0.2370 nv         1 2E8      -1.068900
     17 C5          -0.9690     1.8620    -0.3750 ca         1 2E8      -0.383900
     18 CAX         -0.3870     0.6510    -0.9070 cd         1 2E8       0.435500
     19 CAV          1.0410     0.2820    -0.9030 ca         1 2E8      -0.107900
     20 CAJ          1.8060     0.3790     0.2780 ca         1 2E8      -0.086000
     21 CAE          1.6300    -0.2770    -2.0560 ca         1 2E8      -0.073000
     22 CAG          2.9780    -0.6750    -2.0470 ca         1 2E8      -0.111000
     23 CAY          3.7460    -0.5430    -0.8770 ca         1 2E8       0.008000
     24 CAI          5.0950    -0.9420    -0.8630 ca         1 2E8      -0.156000
     25 CAZ          3.1560    -0.0190     0.2920 ca         1 2E8      -0.078000
     26 CAF          3.9180     0.0970     1.4680 ca         1 2E8      -0.061000
     27 CAD          5.2670    -0.3010     1.4790 ca         1 2E8      -0.181000
     28 CAU          5.8600    -0.8230     0.3090 ca         1 2E8       0.153100
     29 OAT          7.1770    -1.2300     0.2610 os         1 2E8      -0.350100
     30 CAK          8.0450    -1.1510     1.4040 c3         1 2E8       0.167600
     31 CAA          9.4220    -1.6870     0.9800 c3         1 2E8      -0.095100
     32 H1          -5.6160    -2.1390    -2.0250 hc         1 2E8       0.051200
     33 H2          -6.5020    -0.8180    -1.2680 hc         1 2E8       0.051200
     34 H3          -7.3630    -2.9820    -0.4600 h1         1 2E8       0.030450
     35 H4          -5.7440    -3.4940     0.0420 h1         1 2E8       0.030450
     36 H6          -6.7030    -3.7740     2.4330 h1         1 2E8       0.029367
     37 H7          -7.5080    -2.3680     3.1710 h1         1 2E8       0.029367
     38 H8          -8.2740    -3.2130     1.8100 h1         1 2E8       0.029367
     39 H9          -5.5290    -0.9590     2.7970 h1         1 2E8       0.030450
     40 H10         -4.6360    -2.2710     2.0140 h1         1 2E8       0.030450
     41 H11         -5.3320     0.4630     0.7950 hc         1 2E8       0.051200
     42 H12         -3.7400    -0.0850     1.3080 hc         1 2E8       0.051200
     43 H13         -3.7230    -1.8530    -0.4450 hc         1 2E8       0.063700
     44 H14         -3.7490    -0.4970    -2.5190 h1         1 2E8       0.071700
     45 H15         -4.5420     0.8270    -1.6590 h1         1 2E8       0.071700
     46 H16         -3.2560     4.6230     0.6720 h5         1 2E8       0.046100
     47 H17          1.1560     4.2690     0.3910 hn         1 2E8       0.503000
     48 H18          1.5260     2.7100    -0.2630 hn         1 2E8       0.503000
     49 H19          1.3450     0.7540     1.1900 ha         1 2E8       0.119000
     50 H20          1.0440    -0.3920    -2.9660 ha         1 2E8       0.127000
     51 H21          3.4210    -1.0910    -2.9490 ha         1 2E8       0.119000
     52 H22          5.5550    -1.3470    -1.7600 ha         1 2E8       0.130000
     53 H23          3.4690     0.4980     2.3750 ha         1 2E8       0.113000
     54 H24          5.8310    -0.1980     2.4010 ha         1 2E8       0.117000
     55 H25          8.1470    -0.1120     1.7450 h1         1 2E8       0.033700
     56 H26          7.6560    -1.7580     2.2320 h1         1 2E8       0.033700
     57 H27          9.8350    -1.0860     0.1620 hc         1 2E8       0.048367
     58 H28         10.1200    -1.6460     1.8240 hc         1 2E8       0.048367
     59 H29          9.3450    -2.7290     0.6470 hc         1 2E8       0.048367
@<TRIPOS>BOND
     1     1     2 1   
     2     1     7 1   
     3     1    32 1   
     4     1    33 1   
     5     2     3 1   
     6     2    34 1   
     7     2    35 1   
     8     3     4 1   
     9     3     5 1   
    10     4    36 1   
    11     4    37 1   
    12     4    38 1   
    13     5     6 1   
    14     5    39 1   
    15     5    40 1   
    16     6     7 1   
    17     6    41 1   
    18     6    42 1   
    19     7     8 1   
    20     7    43 1   
    21     8     9 1   
    22     8    44 1   
    23     8    45 1   
    24     9    10 1   
    25     9    11 1   
    26    10    18 2   
    27    11    12 ar  
    28    11    17 ar  
    29    12    13 ar  
    30    13    14 ar  
    31    13    46 1   
    32    14    15 ar  
    33    15    16 1   
    34    15    17 ar  
    35    16    47 1   
    36    16    48 1   
    37    17    18 1   
    38    18    19 1   
    39    19    20 ar  
    40    19    21 ar  
    41    20    25 ar  
    42    20    49 1   
    43    21    22 ar  
    44    21    50 1   
    45    22    23 ar  
    46    22    51 1   
    47    23    24 ar  
    48    23    25 ar  
    49    24    28 ar  
    50    24    52 1   
    51    25    26 ar  
    52    26    27 ar  
    53    26    53 1   
    54    27    28 ar  
    55    27    54 1   
    56    28    29 1   
    57    29    30 1   
    58    30    31 1   
    59    30    55 1   
    60    30    56 1   
    61    31    57 1   
    62    31    58 1   
    63    31    59 1   
@<TRIPOS>SUBSTRUCTURE
     1 2E8         1 TEMP              0 ****  ****    0 ROOT
