@<TRIPOS>MOLECULE
2E9
   47    48     1     0     0
SMALL
No Charge or Current Charge


@<TRIPOS>ATOM
      1 O1         -44.6010    13.9700    12.0020 o          1 2E9      -0.623100
      2 C13        -43.6050    13.3050    12.2340 c          1 2E9       0.651100
      3 N2         -42.3750    13.8150    12.5870 ns         1 2E9      -0.406100
      4 C14        -41.9680    15.1360    12.7080 cc         1 2E9       0.050600
      5 C17        -40.6200    15.4780    12.9750 cc         1 2E9      -0.170000
      6 C16        -40.3840    16.8250    13.0480 cd         1 2E9      -0.232000
      7 S          -41.8740    17.7450    12.7870 ss         1 2E9       0.201000
      8 C15        -42.7780    16.2350    12.5790 cd         1 2E9      -0.255000
      9 N1         -43.5850    11.9350    12.1330 ns         1 2E9      -0.505900
     10 C12        -44.6510    11.1290    11.5220 c3         1 2E9       0.106000
     11 C11        -44.3450    10.8170    10.0390 c3         1 2E9      -0.113400
     12 C10        -44.3220    12.0710     9.1390 c3         1 2E9       0.151800
     13 N          -43.6510    11.7810     7.8570 n7         1 2E9      -0.862400
     14 C9         -43.3860    12.9440     6.9750 c3         1 2E9       0.225100
     15 C5         -42.6870    14.0890     7.7170 ca         1 2E9      -0.112300
     16 C4         -41.2990    14.0670     7.9930 ca         1 2E9       0.157100
     17 O          -40.5280    13.0350     7.5330 oh         1 2E9      -0.527100
     18 C6         -43.4630    15.1780     8.1660 ca         1 2E9      -0.063000
     19 C7         -42.8710    16.2220     8.8890 ca         1 2E9       0.095000
     20 Cl         -43.8530    17.5770     9.4330 cl         1 2E9      -0.212000
     21 C8         -41.5000    16.1870     9.1810 ca         1 2E9      -0.050000
     22 C3         -40.7020    15.1120     8.7410 ca         1 2E9      -0.162300
     23 C2         -39.2150    15.1230     9.0910 c3         1 2E9       0.006100
     24 C1         -38.3800    15.7700     8.0050 c2         1 2E9      -0.215200
     25 C          -37.5010    16.7670     8.1960 c2         1 2E9      -0.314000
     26 H1         -41.6670    13.1100    12.7300 hn         1 2E9       0.311500
     27 H2         -39.8470    14.7260    13.1010 ha         1 2E9       0.126000
     28 H3         -39.4490    17.3390    13.2350 h4         1 2E9       0.148000
     29 H4         -43.8380    16.2780    12.3720 h4         1 2E9       0.183000
     30 H5         -42.7180    11.4670    12.3660 hn         1 2E9       0.294500
     31 H6         -45.6130    11.6510    11.6040 h1         1 2E9       0.066200
     32 H7         -44.7340    10.1860    12.0790 h1         1 2E9       0.066200
     33 H8         -45.0930    10.1130     9.6560 hc         1 2E9       0.049200
     34 H9         -43.3740    10.3100     9.9870 hc         1 2E9       0.049200
     35 H10        -43.7720    12.8590     9.6650 h1         1 2E9       0.040200
     36 H11        -45.3480    12.4330     8.9800 h1         1 2E9       0.040200
     37 H12        -44.2070    11.0930     7.3350 hn         1 2E9       0.407000
     38 H14        -44.3320    13.3190     6.5600 h1         1 2E9       0.040200
     39 H15        -42.7700    12.6380     6.1180 h1         1 2E9       0.040200
     40 H16        -39.6090    13.1900     7.8270 ho         1 2E9       0.459000
     41 H17        -44.5300    15.2100     7.9630 ha         1 2E9       0.131000
     42 H18        -41.0570    17.0020     9.7480 ha         1 2E9       0.135000
     43 H19        -38.8530    14.1050     9.2820 hc         1 2E9       0.046200
     44 H20        -39.0650    15.6520    10.0410 hc         1 2E9       0.046200
     45 H21        -38.5470    15.3680     7.0030 ha         1 2E9       0.175000
     46 H22        -36.9330    17.1930     7.3670 ha         1 2E9       0.163500
     47 H23        -37.3170    17.1920     9.1840 ha         1 2E9       0.163500
@<TRIPOS>BOND
     1     1     2 2   
     2     2     3 1   
     3     2     9 1   
     4     3     4 1   
     5     3    26 1   
     6     4     5 1   
     7     4     8 2   
     8     5     6 2   
     9     5    27 1   
    10     6     7 1   
    11     6    28 1   
    12     7     8 1   
    13     8    29 1   
    14     9    10 1   
    15     9    30 1   
    16    10    11 1   
    17    10    31 1   
    18    10    32 1   
    19    11    12 1   
    20    11    33 1   
    21    11    34 1   
    22    12    13 1   
    23    12    35 1   
    24    12    36 1   
    25    13    14 1   
    26    13    37 1   
    27    14    15 1   
    28    14    38 1   
    29    14    39 1   
    30    15    16 ar  
    31    15    18 ar  
    32    16    17 1   
    33    16    22 ar  
    34    17    40 1   
    35    18    19 ar  
    36    18    41 1   
    37    19    20 1   
    38    19    21 ar  
    39    21    22 ar  
    40    21    42 1   
    41    22    23 1   
    42    23    24 1   
    43    23    43 1   
    44    23    44 1   
    45    24    25 2   
    46    24    45 1   
    47    25    46 1   
    48    25    47 1   
@<TRIPOS>SUBSTRUCTURE
     1 2E9         1 TEMP              0 ****  ****    0 ROOT
