@<TRIPOS>MOLECULE
2E9
   47    48     1     0     0
SMALL
abcg2


@<TRIPOS>ATOM
      1 O1         -44.4630    14.1500    12.0000 o          1 2E9      -0.623100
      2 C13        -43.4870    13.4170    12.1600 c          1 2E9       0.651100
      3 N2         -42.2070    13.9020    12.3030 ns         1 2E9      -0.406100
      4 C14        -41.8150    15.2410    12.3130 cc         1 2E9       0.050600
      5 C17        -40.4240    15.5690    12.4110 cc         1 2E9      -0.170000
      6 C16        -40.2010    16.9120    12.3990 cd         1 2E9      -0.232000
      7 S          -41.6670    17.7950    12.2620 ss         1 2E9       0.201000
      8 C15        -42.6110    16.3530    12.2280 cd         1 2E9      -0.255000
      9 N1         -43.5740    12.0560    12.2350 ns         1 2E9      -0.505900
     10 C12        -44.7150    11.3210    11.7010 c3         1 2E9       0.106000
     11 C11        -44.4650    10.8430    10.2690 c3         1 2E9      -0.113400
     12 C10        -44.3730    11.9930     9.2720 c3         1 2E9       0.151800
     13 N          -43.5970    11.6320     8.0900 n7         1 2E9      -0.862400
     14 C9         -43.4780    12.7250     7.1170 c3         1 2E9       0.225100
     15 C5         -42.7450    13.9180     7.6830 ca         1 2E9      -0.112300
     16 C4         -41.3620    13.8930     7.9050 ca         1 2E9       0.157100
     17 O          -40.7040    12.7490     7.5590 oh         1 2E9      -0.527100
     18 C6         -43.4550    15.0680     8.0130 ca         1 2E9      -0.063000
     19 C7         -42.7990    16.1580     8.5580 ca         1 2E9       0.095000
     20 CL         -43.7180    17.6000     8.9550 cl         1 2E9      -0.212000
     21 C8         -41.4340    16.1300     8.7860 ca         1 2E9      -0.050000
     22 C3         -40.6930    15.0000     8.4520 ca         1 2E9      -0.162300
     23 C2         -39.1960    14.9590     8.6910 c3         1 2E9       0.006100
     24 C1         -38.5380    16.3060     8.7260 c2         1 2E9      -0.215200
     25 C          -37.8080    16.7660     9.7350 c2         1 2E9      -0.314000
     26 H1         -41.4580    13.2310    12.3750 hn         1 2E9       0.311500
     27 H2         -39.6420    14.8250    12.4750 ha         1 2E9       0.126000
     28 H3         -39.2550    17.4260    12.4500 h4         1 2E9       0.148000
     29 H4         -43.6780    16.3970    12.1210 h4         1 2E9       0.183000
     30 H5         -42.7090    11.5380    12.2720 hn         1 2E9       0.294500
     31 H6         -45.5830    11.9750    11.7530 h1         1 2E9       0.066200
     32 H7         -44.9050    10.4660    12.3510 h1         1 2E9       0.066200
     33 H8         -45.2560    10.1450     9.9800 hc         1 2E9       0.049200
     34 H9         -43.5230    10.2850    10.2510 hc         1 2E9       0.049200
     35 H10        -43.8650    12.8360     9.7380 h1         1 2E9       0.040200
     36 H11        -45.3860    12.3470     9.0180 h1         1 2E9       0.040200
     37 H12        -44.0260    10.8370     7.6270 hn         1 2E9       0.407000
     38 H14        -44.4610    13.0720     6.7690 h1         1 2E9       0.040200
     39 H15        -42.9400    12.3360     6.2500 h1         1 2E9       0.040200
     40 H16        -39.7580    12.8350     7.7260 ho         1 2E9       0.459000
     41 H17        -44.5230    15.1000     7.8470 ha         1 2E9       0.131000
     42 H18        -40.9400    16.9840     9.2280 ha         1 2E9       0.135000
     43 H19        -38.7160    14.3910     7.8850 hc         1 2E9       0.046200
     44 H20        -38.9840    14.4190     9.6190 hc         1 2E9       0.046200
     45 H21        -38.6790    16.9210     7.8410 ha         1 2E9       0.175000
     46 H22        -37.3390    17.7410     9.6950 ha         1 2E9       0.163500
     47 H23        -37.6600    16.1830    10.6370 ha         1 2E9       0.163500
@<TRIPOS>BOND
     1     1     2 2   
     2     2     3 1   
     3     2     9 1   
     4     3     4 1   
     5     3    26 1   
     6     4     5 1   
     7     4     8 2   
     8     5     6 2   
     9     5    27 1   
    10     6     7 1   
    11     6    28 1   
    12     7     8 1   
    13     8    29 1   
    14     9    10 1   
    15     9    30 1   
    16    10    11 1   
    17    10    31 1   
    18    10    32 1   
    19    11    12 1   
    20    11    33 1   
    21    11    34 1   
    22    12    13 1   
    23    12    35 1   
    24    12    36 1   
    25    13    14 1   
    26    13    37 1   
    27    14    15 1   
    28    14    38 1   
    29    14    39 1   
    30    15    16 ar  
    31    15    18 ar  
    32    16    17 1   
    33    16    22 ar  
    34    17    40 1   
    35    18    19 ar  
    36    18    41 1   
    37    19    20 1   
    38    19    21 ar  
    39    21    22 ar  
    40    21    42 1   
    41    22    23 1   
    42    23    24 1   
    43    23    43 1   
    44    23    44 1   
    45    24    25 2   
    46    24    45 1   
    47    25    46 1   
    48    25    47 1   
@<TRIPOS>SUBSTRUCTURE
     1 2E9         1 TEMP              0 ****  ****    0 ROOT
