@<TRIPOS>MOLECULE
2EA
   52    56     1     0     0
SMALL
No Charge or Current Charge


@<TRIPOS>ATOM
      1 C1           4.3040     0.0390    -0.3170 cp         1 2EA      -0.016000
      2 C2           5.2960    -0.9590    -0.1360 ca         1 2EA      -0.092000
      3 C3           6.5960    -0.6200     0.2790 ca         1 2EA      -0.011000
      4 C4           6.9350     0.7240     0.5200 ca         1 2EA      -0.097000
      5 C5           5.9680     1.7300     0.3450 ca         1 2EA      -0.080000
      6 C6           4.6690     1.3880    -0.0680 ca         1 2EA      -0.101000
      7 C7           7.5870    -1.5990     0.4650 ca         1 2EA      -0.145000
      8 C8           8.8700    -1.2030     0.8800 ca         1 2EA       0.324900
      9 N1           9.2060     0.0880     1.1140 nb         1 2EA      -0.663000
     10 C9           8.2480     1.0300     0.9340 ca         1 2EA       0.363900
     11 C10         -9.1820    -0.7840     0.2220 ca         1 2EA      -0.109000
     12 C11         -8.3830    -0.8340     1.3840 ca         1 2EA      -0.063000
     13 C12         -7.0040    -0.6360     1.2450 ca         1 2EA       0.086400
     14 C13         -6.4200    -0.3960     0.0140 ca         1 2EA      -0.125300
     15 C14         -7.1980    -0.3420    -1.1520 ca         1 2EA      -0.083000
     16 C15         -8.5910    -0.5390    -1.0400 ca         1 2EA      -0.107000
     17 N2          -6.0270    -0.6360     2.2370 ne         1 2EA      -0.523100
     18 C16         -4.8580    -0.4090     1.7020 c2         1 2EA       0.398200
     19 C17         -4.9220    -0.2210     0.1730 c5         1 2EA      -0.117700
     20 C18          0.3860    -1.0640    -1.6360 ca         1 2EA       0.250900
     21 N3           1.4490    -1.7830    -2.0680 nb         1 2EA      -0.638000
     22 C19          2.6780    -1.4140    -1.6340 ca         1 2EA       0.308900
     23 C20          2.9180    -0.3200    -0.7580 cp         1 2EA      -0.055000
     24 C21          1.7870     0.4160    -0.3220 ca         1 2EA      -0.103000
     25 C22          0.5050     0.0460    -0.7610 ca         1 2EA       0.097100
     26 O1          -0.5800     0.7780    -0.3160 os         1 2EA      -0.319100
     27 C24         -1.9280     0.4580    -0.7150 c3         1 2EA       0.169600
     28 C23         -2.9110     1.4690    -0.0430 c3         1 2EA       0.157500
     29 C25         -4.4030     1.1530    -0.3370 c3         1 2EA      -0.093400
     30 N4          -2.6330     2.8750    -0.4400 n8         1 2EA      -0.978200
     31 H2           5.0510    -2.0050    -0.3040 ha         1 2EA       0.122000
     32 H5           6.2210     2.7730     0.5260 ha         1 2EA       0.120000
     33 H6           3.9410     2.1830    -0.2100 ha         1 2EA       0.122000
     34 H7           7.3760    -2.6500     0.2930 ha         1 2EA       0.124000
     35 H8           9.6550    -1.9420     1.0310 h4         1 2EA       0.019100
     36 H9           8.5440     2.0610     1.1290 h4         1 2EA       0.019100
     37 H11         -8.8230    -1.0200     2.3600 ha         1 2EA       0.132000
     38 H14         -6.7400    -0.1540    -2.1200 ha         1 2EA       0.115000
     39 H15         -9.2150    -0.5010    -1.9310 ha         1 2EA       0.116000
     40 H16         -3.9540    -0.3760     2.3050 h4         1 2EA       0.040800
     41 H17         -4.3760    -1.0230    -0.3350 hc         1 2EA       0.087700
     42 H18         -0.5830    -1.3950    -2.0070 h4         1 2EA       0.020100
     43 H19          3.5080    -2.0090    -2.0130 h4         1 2EA       0.024100
     44 H21          1.8950     1.2550     0.3590 ha         1 2EA       0.138000
     45 H241        -2.1750    -0.5620    -0.3970 h1         1 2EA       0.035700
     46 H242        -2.0330     0.5150    -1.8060 h1         1 2EA       0.035700
     47 H23         -2.7600     1.3990     1.0440 h1         1 2EA       0.076700
     48 H251        -5.0200     1.9430     0.1110 hc         1 2EA       0.052200
     49 H252        -4.5700     1.2180    -1.4200 hc         1 2EA       0.052200
     50 HN41        -2.7910     2.9790    -1.4480 hn         1 2EA       0.396500
     51 HN42        -3.3390     3.4900    -0.0200 hn         1 2EA       0.396500
     52 H10        -10.2570    -0.9340     0.2980 ha         1 2EA       0.117000
@<TRIPOS>BOND
     1     1     2 ar  
     2     1     6 ar  
     3     1    23 1   
     4     2     3 ar  
     5     2    31 1   
     6     3     4 ar  
     7     3     7 ar  
     8     4     5 ar  
     9     4    10 ar  
    10     5     6 ar  
    11     5    32 1   
    12     6    33 1   
    13     7     8 ar  
    14     7    34 1   
    15     8     9 ar  
    16     8    35 1   
    17     9    10 ar  
    18    10    36 1   
    19    11    12 ar  
    20    11    16 ar  
    21    11    52 1   
    22    12    13 ar  
    23    12    37 1   
    24    13    14 ar  
    25    13    17 1   
    26    14    15 ar  
    27    14    19 1   
    28    15    16 ar  
    29    15    38 1   
    30    16    39 1   
    31    17    18 2   
    32    18    19 1   
    33    18    40 1   
    34    19    29 1   
    35    19    41 1   
    36    20    21 ar  
    37    20    25 ar  
    38    20    42 1   
    39    21    22 ar  
    40    22    23 ar  
    41    22    43 1   
    42    23    24 ar  
    43    24    25 ar  
    44    24    44 1   
    45    25    26 1   
    46    26    27 1   
    47    27    28 1   
    48    27    45 1   
    49    27    46 1   
    50    28    29 1   
    51    28    30 1   
    52    28    47 1   
    53    29    48 1   
    54    29    49 1   
    55    30    50 1   
    56    30    51 1   
@<TRIPOS>SUBSTRUCTURE
     1 2EA         1 TEMP              0 ****  ****    0 ROOT
