@<TRIPOS>MOLECULE
2EA
   52    56     1     0     0
SMALL
abcg2


@<TRIPOS>ATOM
      1 C1           4.1810     0.0520    -0.3470 cp         1 2EA      -0.016000
      2 C2           5.0810    -0.9610    -0.1180 ca         1 2EA      -0.092000
      3 C3           6.3940    -0.6760     0.3120 ca         1 2EA      -0.011000
      4 C4           6.7800     0.6680     0.5090 ca         1 2EA      -0.097000
      5 C5           5.8460     1.7000     0.2720 ca         1 2EA      -0.080000
      6 C6           4.5810     1.3990    -0.1440 ca         1 2EA      -0.101000
      7 C7           7.3610    -1.6740     0.5690 ca         1 2EA      -0.145000
      8 C8           8.6070    -1.3010     0.9850 ca         1 2EA       0.324900
      9 N1           8.9840    -0.0150     1.1710 nb         1 2EA      -0.663000
     10 C9           8.1030     0.9200     0.9410 ca         1 2EA       0.363900
     11 C10         -8.9560    -0.9290     0.2480 ca         1 2EA      -0.109000
     12 C11         -8.1690    -0.8930     1.3960 ca         1 2EA      -0.063000
     13 C12         -6.8160    -0.6470     1.2420 ca         1 2EA       0.086400
     14 C13         -6.2490    -0.4450    -0.0170 ca         1 2EA      -0.125300
     15 C14         -7.0310    -0.4790    -1.1540 ca         1 2EA      -0.083000
     16 C15         -8.3960    -0.7250    -1.0100 ca         1 2EA      -0.107000
     17 N2          -5.8490    -0.5660     2.2640 ne         1 2EA      -0.523100
     18 C16         -4.7310    -0.3200     1.6950 c2         1 2EA       0.398200
     19 C17         -4.7860    -0.2010     0.1950 c5         1 2EA      -0.117700
     20 C18          0.3110    -0.9040    -1.6930 ca         1 2EA       0.250900
     21 N3           1.3570    -1.5910    -2.1390 nb         1 2EA      -0.638000
     22 C19          2.5670    -1.2800    -1.7120 ca         1 2EA       0.308900
     23 C20          2.8110    -0.2490    -0.8000 cp         1 2EA      -0.055000
     24 C21          1.7210     0.4750    -0.3410 ca         1 2EA      -0.103000
     25 C22          0.4430     0.1490    -0.7880 ca         1 2EA       0.097100
     26 O1          -0.5730     0.8770    -0.3030 os         1 2EA      -0.319100
     27 C24         -1.8930     0.5620    -0.7110 c3         1 2EA       0.169600
     28 C23         -2.8490     1.5320    -0.0400 c3         1 2EA       0.157500
     29 C25         -4.3060     1.1550    -0.3450 c3         1 2EA      -0.093400
     30 N4          -2.5280     2.8880    -0.4530 n8         1 2EA      -0.978200
     31 H2           4.7880    -1.9960    -0.2440 ha         1 2EA       0.122000
     32 H5           6.1440     2.7310     0.4160 ha         1 2EA       0.120000
     33 H6           3.8780     2.1980    -0.3390 ha         1 2EA       0.122000
     34 H7           7.1160    -2.7200     0.4380 ha         1 2EA       0.124000
     35 H8           9.3630    -2.0500     1.1880 h4         1 2EA       0.019100
     36 H9           8.4180     1.9480     1.0950 h4         1 2EA       0.019100
     37 H11         -8.6010    -1.0500     2.3760 ha         1 2EA       0.132000
     38 H14         -6.6040    -0.3200    -2.1370 ha         1 2EA       0.115000
     39 H15         -9.0300    -0.7590    -1.8860 ha         1 2EA       0.116000
     40 H16         -3.8220    -0.2180     2.2770 h4         1 2EA       0.040800
     41 H17         -4.1960    -1.0140    -0.2470 hc         1 2EA       0.087700
     42 H18         -0.6560    -1.2060    -2.0760 h4         1 2EA       0.020100
     43 H19          3.3890    -1.8570    -2.1200 h4         1 2EA       0.024100
     44 H21          1.8450     1.2780     0.3760 ha         1 2EA       0.138000
     45 H241        -2.1310    -0.4710    -0.4350 h1         1 2EA       0.035700
     46 H242        -1.9910     0.6430    -1.8020 h1         1 2EA       0.035700
     47 H23         -2.6890     1.4780     1.0420 h1         1 2EA       0.076700
     48 H251        -4.9470     1.9390     0.0670 hc         1 2EA       0.052200
     49 H252        -4.4570     1.1680    -1.4300 hc         1 2EA       0.052200
     50 HN41        -2.7720     3.0140    -1.4290 hn         1 2EA       0.396500
     51 HN42        -3.1060     3.5420     0.0610 hn         1 2EA       0.396500
     52 H10        -10.0180    -1.1160     0.3350 ha         1 2EA       0.117000
@<TRIPOS>BOND
     1     1     2 ar  
     2     1     6 ar  
     3     1    23 1   
     4     2     3 ar  
     5     2    31 1   
     6     3     4 ar  
     7     3     7 ar  
     8     4     5 ar  
     9     4    10 ar  
    10     5     6 ar  
    11     5    32 1   
    12     6    33 1   
    13     7     8 ar  
    14     7    34 1   
    15     8     9 ar  
    16     8    35 1   
    17     9    10 ar  
    18    10    36 1   
    19    11    12 ar  
    20    11    16 ar  
    21    11    52 1   
    22    12    13 ar  
    23    12    37 1   
    24    13    14 ar  
    25    13    17 1   
    26    14    15 ar  
    27    14    19 1   
    28    15    16 ar  
    29    15    38 1   
    30    16    39 1   
    31    17    18 2   
    32    18    19 1   
    33    18    40 1   
    34    19    29 1   
    35    19    41 1   
    36    20    21 ar  
    37    20    25 ar  
    38    20    42 1   
    39    21    22 ar  
    40    22    23 ar  
    41    22    43 1   
    42    23    24 ar  
    43    24    25 ar  
    44    24    44 1   
    45    25    26 1   
    46    26    27 1   
    47    27    28 1   
    48    27    45 1   
    49    27    46 1   
    50    28    29 1   
    51    28    30 1   
    52    28    47 1   
    53    29    48 1   
    54    29    49 1   
    55    30    50 1   
    56    30    51 1   
@<TRIPOS>SUBSTRUCTURE
     1 2EA         1 TEMP              0 ****  ****    0 ROOT
