@<TRIPOS>MOLECULE
2EB
   40    41     1     0     0
SMALL
abcg2


@<TRIPOS>ATOM
      1 I          -37.2630    15.1780     8.1550 i          1 2EB      -0.314000
      2 C14        -39.3740    15.1050     8.2720 ca         1 2EB       0.101000
      3 C          -40.0580    14.0090     7.7380 ca         1 2EB       0.189100
      4 O          -39.4420    12.9670     7.1330 oh         1 2EB      -0.514100
      5 C13        -40.0470    16.1580     8.8820 ca         1 2EB      -0.034000
      6 C12        -41.4290    16.1090     8.9460 ca         1 2EB       0.079000
      7 CL         -42.3010    17.4200     9.7090 cl         1 2EB      -0.193000
      8 C11        -42.1310    15.0330     8.4190 ca         1 2EB      -0.049000
      9 C1         -41.4610    13.9760     7.8180 ca         1 2EB      -0.108300
     10 C2         -42.2270    12.7850     7.2950 c3         1 2EB       0.219100
     11 N          -42.1560    11.6540     8.2250 n7         1 2EB      -0.861400
     12 C3         -42.9720    11.8530     9.4200 c3         1 2EB       0.151800
     13 C4         -42.8550    10.6850    10.3860 c3         1 2EB      -0.109400
     14 C5         -43.6120    10.9200    11.6950 c3         1 2EB       0.109000
     15 N1         -43.1070    12.0580    12.4490 ns         1 2EB      -0.515900
     16 C6         -43.6580    13.3010    12.3480 c          1 2EB       0.654100
     17 O1         -44.7560    13.5140    11.8340 o          1 2EB      -0.630100
     18 N2         -42.8880    14.3030    12.8930 ns         1 2EB      -0.406100
     19 C7         -43.2250    15.6550    12.9800 cc         1 2EB       0.051600
     20 C10        -42.2780    16.5910    13.5060 cc         1 2EB      -0.166000
     21 C9         -42.7520    17.8680    13.5200 cd         1 2EB      -0.225000
     22 S          -44.3490    17.9540    12.8960 ss         1 2EB       0.194000
     23 C8         -44.4020    16.2540    12.6110 cd         1 2EB      -0.259000
     24 H1         -38.4810    13.1080     7.1140 ho         1 2EB       0.474000
     25 H2         -39.5070    16.9970     9.2930 ha         1 2EB       0.141000
     26 H3         -43.2110    15.0090     8.4820 ha         1 2EB       0.139000
     27 H4         -43.2640    13.1000     7.1080 h1         1 2EB       0.044700
     28 H5         -41.8020    12.4640     6.3440 h1         1 2EB       0.044700
     29 H6         -42.4650    10.8180     7.7410 hn         1 2EB       0.411000
     30 H8         -42.6200    12.7620     9.9120 h1         1 2EB       0.039200
     31 H9         -44.0310    12.0220     9.1690 h1         1 2EB       0.039200
     32 H10        -43.2450     9.7730     9.9220 hc         1 2EB       0.050200
     33 H11        -41.7980    10.5050    10.6060 hc         1 2EB       0.050200
     34 H12        -44.6670    11.1030    11.4980 h1         1 2EB       0.064700
     35 H13        -43.5400    10.0330    12.3260 h1         1 2EB       0.064700
     36 H14        -42.1630    11.9820    12.7960 hn         1 2EB       0.300500
     37 H15        -41.9810    14.0550    13.2590 hn         1 2EB       0.313500
     38 H16        -41.2920    16.3080    13.8480 ha         1 2EB       0.129000
     39 H17        -42.2470    18.7580    13.8600 h4         1 2EB       0.150000
     40 H18        -45.2720    15.7960    12.1800 h4         1 2EB       0.179000
@<TRIPOS>BOND
     1     1     2 1   
     2     2     3 ar  
     3     2     5 ar  
     4     3     4 1   
     5     3     9 ar  
     6     4    24 1   
     7     5     6 ar  
     8     5    25 1   
     9     6     7 1   
    10     6     8 ar  
    11     8     9 ar  
    12     8    26 1   
    13     9    10 1   
    14    10    11 1   
    15    10    27 1   
    16    10    28 1   
    17    11    12 1   
    18    11    29 1   
    19    12    13 1   
    20    12    30 1   
    21    12    31 1   
    22    13    14 1   
    23    13    32 1   
    24    13    33 1   
    25    14    15 1   
    26    14    34 1   
    27    14    35 1   
    28    15    16 1   
    29    15    36 1   
    30    16    17 2   
    31    16    18 1   
    32    18    19 1   
    33    18    37 1   
    34    19    20 1   
    35    19    23 2   
    36    20    21 2   
    37    20    38 1   
    38    21    22 1   
    39    21    39 1   
    40    22    23 1   
    41    23    40 1   
@<TRIPOS>SUBSTRUCTURE
     1 2EB         1 TEMP              0 ****  ****    0 ROOT
