@<TRIPOS>MOLECULE
2EB
   40    41     1     0     0
SMALL
No Charge or Current Charge


@<TRIPOS>ATOM
      1 I          -37.4080    15.6730     8.1670 i          1 2EB      -0.314000
      2 C14        -39.5500    15.2950     8.1440 ca         1 2EB       0.101000
      3 C          -40.0530    14.0660     7.6620 ca         1 2EB       0.189100
      4 O          -39.1810    13.1160     7.1970 oh         1 2EB      -0.514100
      5 C13        -40.4250    16.2880     8.6110 ca         1 2EB      -0.034000
      6 C12        -41.8090    16.0600     8.5950 ca         1 2EB       0.079000
      7 Cl         -42.9100    17.3060     9.1680 cl         1 2EB      -0.193000
      8 C11        -42.3180    14.8410     8.1190 ca         1 2EB      -0.049000
      9 C1         -41.4480    13.8300     7.6560 ca         1 2EB      -0.108300
     10 C2         -42.0350    12.5090     7.1580 c3         1 2EB       0.219100
     11 N          -42.1040    11.4900     8.2300 n7         1 2EB      -0.861400
     12 C3         -42.9300    11.8400     9.4020 c3         1 2EB       0.151800
     13 C4         -42.9160    10.6920    10.4300 c3         1 2EB      -0.109400
     14 C5         -43.7460    10.9860    11.6990 c3         1 2EB       0.109000
     15 N1         -43.2310    12.1340    12.4550 ns         1 2EB      -0.515900
     16 C6         -43.6700    13.4270    12.3050 c          1 2EB       0.654100
     17 O1         -44.5910    13.7300    11.5650 o          1 2EB      -0.630100
     18 N2         -42.9460    14.3130    13.0710 ns         1 2EB      -0.406100
     19 C7         -43.0560    15.6930    13.1720 cc         1 2EB       0.051600
     20 C10        -42.2020    16.4500    14.0100 cc         1 2EB      -0.166000
     21 C9         -42.4400    17.7990    13.9870 cd         1 2EB      -0.225000
     22 S          -43.7730    18.1890    12.8900 ss         1 2EB       0.194000
     23 C8         -43.9630    16.4710    12.4980 cd         1 2EB      -0.259000
     24 H1         -38.2690    13.4650     7.3010 ho         1 2EB       0.474000
     25 H2         -40.0320    17.2320     8.9790 ha         1 2EB       0.141000
     26 H3         -43.3930    14.6780     8.1190 ha         1 2EB       0.139000
     27 H4         -43.0380    12.6970     6.7500 h1         1 2EB       0.044700
     28 H5         -41.4270    12.1350     6.3230 h1         1 2EB       0.044700
     29 H6         -42.4830    10.6280     7.8190 hn         1 2EB       0.411000
     30 H8         -42.5370    12.7460     9.8820 h1         1 2EB       0.039200
     31 H9         -43.9670    12.0410     9.1000 h1         1 2EB       0.039200
     32 H10        -43.3080     9.7830     9.9600 hc         1 2EB       0.050200
     33 H11        -41.8800    10.4790    10.7240 hc         1 2EB       0.050200
     34 H12        -44.7940    11.1640    11.4230 h1         1 2EB       0.064700
     35 H13        -43.7240    10.1040    12.3540 h1         1 2EB       0.064700
     36 H14        -42.4660    11.9740    13.0980 hn         1 2EB       0.300500
     37 H15        -42.2240    13.8760    13.6270 hn         1 2EB       0.313500
     38 H16        -41.4260    15.9870    14.6130 ha         1 2EB       0.129000
     39 H17        -41.9290    18.5840    14.5310 h4         1 2EB       0.150000
     40 H18        -44.7270    16.1710    11.7950 h4         1 2EB       0.179000
@<TRIPOS>BOND
     1     1     2 1   
     2     2     3 ar  
     3     2     5 ar  
     4     3     4 1   
     5     3     9 ar  
     6     4    24 1   
     7     5     6 ar  
     8     5    25 1   
     9     6     7 1   
    10     6     8 ar  
    11     8     9 ar  
    12     8    26 1   
    13     9    10 1   
    14    10    11 1   
    15    10    27 1   
    16    10    28 1   
    17    11    12 1   
    18    11    29 1   
    19    12    13 1   
    20    12    30 1   
    21    12    31 1   
    22    13    14 1   
    23    13    32 1   
    24    13    33 1   
    25    14    15 1   
    26    14    34 1   
    27    14    35 1   
    28    15    16 1   
    29    15    36 1   
    30    16    17 2   
    31    16    18 1   
    32    18    19 1   
    33    18    37 1   
    34    19    20 1   
    35    19    23 2   
    36    20    21 2   
    37    20    38 1   
    38    21    22 1   
    39    21    39 1   
    40    22    23 1   
    41    23    40 1   
@<TRIPOS>SUBSTRUCTURE
     1 2EB         1 TEMP              0 ****  ****    0 ROOT
