@<TRIPOS>MOLECULE
2EC
   21    22     1     0     0
SMALL
No Charge or Current Charge


@<TRIPOS>ATOM
      1 N6           3.0710     1.0170     0.3670 nv         1 2EC      -1.064900
      2 C6           2.0210     0.1750     0.1720 ca         1 2EC       0.451900
      3 C5           0.6940     0.6350     0.0350 ca         1 2EC      -0.101600
      4 N7           0.2020     1.9400     0.0640 nc         1 2EC      -0.552100
      5 C4          -0.2930    -0.3010    -0.1620 ca         1 2EC       0.121500
      6 N9          -1.4680     0.3950    -0.2630 na         1 2EC      -0.279300
      7 C8          -1.1190     1.7480    -0.1190 cd         1 2EC       0.399700
      8 C9M         -2.7930    -0.2080    -0.4710 c3         1 2EC       0.087600
      9 N3          -0.0280    -1.6210    -0.2280 nb         1 2EC      -0.221000
     10 C50         -3.4490    -0.6650     0.8440 c3         1 2EC      -0.113100
     11 C2           1.2730    -1.9700    -0.0890 ca         1 2EC       0.180900
     12 N1           2.3190    -1.1320     0.1080 nb         1 2EC      -0.304000
     13 H61N         2.8980     2.0050     0.1950 hn         1 2EC       0.506000
     14 H62N         4.0050     0.6760     0.1580 hn         1 2EC       0.506000
     15 H8          -1.8720     2.5270    -0.1580 h5         1 2EC       0.063800
     16 H9M1        -3.4420     0.5270    -0.9640 h1         1 2EC       0.061700
     17 H9M2        -2.6910    -1.0680    -1.1450 h1         1 2EC       0.061700
     18 H501        -2.8300    -1.4190     1.3440 hc         1 2EC       0.050033
     19 H502        -3.5810     0.1840     1.5260 hc         1 2EC       0.050033
     20 H503        -4.4340    -1.1040     0.6460 hc         1 2EC       0.050033
     21 H2           1.5020    -3.0330    -0.1410 h5         1 2EC       0.045100
@<TRIPOS>BOND
     1     1     2 1   
     2     1    13 1   
     3     1    14 1   
     4     2     3 ar  
     5     2    12 ar  
     6     3     4 1   
     7     3     5 ar  
     8     4     7 2   
     9     5     6 1   
    10     5     9 ar  
    11     6     7 1   
    12     6     8 1   
    13     7    15 1   
    14     8    10 1   
    15     8    16 1   
    16     8    17 1   
    17     9    11 ar  
    18    10    18 1   
    19    10    19 1   
    20    10    20 1   
    21    11    12 ar  
    22    11    21 1   
@<TRIPOS>SUBSTRUCTURE
     1 2EC         1 TEMP              0 ****  ****    0 ROOT
