@<TRIPOS>MOLECULE
2EC
   21    22     1     0     0
SMALL
bcc


@<TRIPOS>ATOM
      1 N6           3.0490     1.0170     0.3090 nv         1 2EC      -0.954500
      2 C6           2.0090     0.1990     0.1350 ca         1 2EC       0.780200
      3 C5           0.6900     0.6670    -0.0120 ca         1 2EC      -0.232200
      4 N7           0.1430     1.9230    -0.0340 nc         1 2EC      -0.552100
      5 C4          -0.2900    -0.3000    -0.1790 ca         1 2EC       0.449800
      6 N9          -1.4570     0.3890    -0.3090 na         1 2EC      -0.250000
      7 C8          -1.1300     1.7090    -0.2080 cd         1 2EC       0.399700
      8 C9M         -2.7880    -0.1730    -0.4540 c3         1 2EC       0.058300
      9 N3          -0.1030    -1.6200    -0.2110 nb         1 2EC      -0.747000
     10 C50         -3.3360    -0.7060     0.8580 c3         1 2EC      -0.113100
     11 C2           1.1710    -1.9350    -0.0620 ca         1 2EC       0.706900
     12 N1           2.2120    -1.1230     0.1050 nb         1 2EC      -0.830000
     13 H61N         2.9330     2.0140     0.2810 hn         1 2EC       0.450800
     14 H62N         3.9830     0.6470     0.3530 hn         1 2EC       0.450800
     15 H8          -1.8870     2.4760    -0.2770 h5         1 2EC       0.063800
     16 H9M1        -3.4290     0.6120    -0.8530 h1         1 2EC       0.061700
     17 H9M2        -2.7410    -0.9640    -1.2020 h1         1 2EC       0.061700
     18 H501        -2.7160    -1.5130     1.2450 hc         1 2EC       0.050033
     19 H502        -3.3930     0.0810     1.6100 hc         1 2EC       0.050033
     20 H503        -4.3410    -1.0990     0.7030 hc         1 2EC       0.050033
     21 H2           1.4060    -2.9940    -0.0770 h5         1 2EC       0.045100
@<TRIPOS>BOND
     1     1     2 1   
     2     1    13 1   
     3     1    14 1   
     4     2     3 ar  
     5     2    12 ar  
     6     3     4 1   
     7     3     5 ar  
     8     4     7 2   
     9     5     6 1   
    10     5     9 ar  
    11     6     7 1   
    12     6     8 1   
    13     7    15 1   
    14     8    10 1   
    15     8    16 1   
    16     8    17 1   
    17     9    11 ar  
    18    10    18 1   
    19    10    19 1   
    20    10    20 1   
    21    11    12 ar  
    22    11    21 1   
@<TRIPOS>SUBSTRUCTURE
     1 2EC         1 TEMP              0 ****  ****    0 ROOT
