@<TRIPOS>MOLECULE
2ED
   63    62     1     0     0
SMALL
No Charge or Current Charge


@<TRIPOS>ATOM
      1 O2           3.7420     1.9340     0.7090 o          1 2ED      -0.608100
      2 O3           8.2300     0.6540    -1.1130 oh         1 2ED      -0.657000
      3 O1           6.7890    -1.6090    -0.4890 oh         1 2ED      -0.639000
      4 C1           6.3030     0.6090     0.4300 c3         1 2ED       0.074700
      5 C2           6.3050    -0.9330     0.6770 c3         1 2ED       0.201500
      6 C3           4.9340    -1.4750     1.0480 c2         1 2ED      -0.256200
      7 C4           3.9590    -1.8320     0.1930 c2         1 2ED      -0.200200
      8 C5           2.5750    -2.3020     0.5850 c3         1 2ED      -0.041200
      9 C6           1.4840    -1.3120     0.1260 c3         1 2ED      -0.076400
     10 C18          4.1210     1.5900    -0.4010 c          1 2ED       0.603100
     11 C19          3.2740     1.7840    -1.6510 c3         1 2ED      -0.181100
     12 N            5.3450     1.0030    -0.6230 ns         1 2ED      -0.510900
     13 C            7.7190     1.1740     0.1290 c3         1 2ED       0.153600
     14 HO3          9.0460     1.1640    -1.3230 ho         1 2ED       0.445000
     15 HO1          7.4000    -0.9530    -0.9110 ho         1 2ED       0.441000
     16 H1           5.9840     1.0730     1.3730 h1         1 2ED       0.085700
     17 H2           6.9870    -1.1270     1.5180 h1         1 2ED       0.079700
     18 H3           4.7640    -1.5230     2.1250 ha         1 2ED       0.182000
     19 H4           4.1220    -1.7720    -0.8850 ha         1 2ED       0.166000
     20 H5           2.3800    -3.2870     0.1450 hc         1 2ED       0.045200
     21 H5A          2.5080    -2.4270     1.6730 hc         1 2ED       0.045200
     22 H6           1.6840    -0.3290     0.5700 hc         1 2ED       0.042200
     23 H6A          1.5450    -1.1900    -0.9630 hc         1 2ED       0.042200
     24 H19          2.3090     2.2560    -1.4380 hc         1 2ED       0.060367
     25 H19A         3.8500     2.3540    -2.3890 hc         1 2ED       0.060367
     26 H19B         3.1490     0.8160    -2.1490 hc         1 2ED       0.060367
     27 HN           5.5710     0.7670    -1.5810 hn         1 2ED       0.323500
     28 H            8.3940     0.9160     0.9570 h1         1 2ED       0.029200
     29 HA           7.6580     2.2700     0.0820 h1         1 2ED       0.029200
     30 C10          0.0550    -1.7590     0.5060 c3         1 2ED      -0.073400
     31 C11         -1.0300    -0.7620     0.0440 c3         1 2ED      -0.075400
     32 C12         -2.4600    -1.2060     0.4240 c3         1 2ED      -0.073400
     33 C13         -3.5450    -0.2090    -0.0380 c3         1 2ED      -0.074400
     34 C14         -4.9750    -0.6530     0.3410 c3         1 2ED      -0.073400
     35 C15         -6.0600     0.3450    -0.1210 c3         1 2ED      -0.074400
     36 C16         -7.4890    -0.0990     0.2590 c3         1 2ED      -0.074400
     37 C17         -8.5740     0.8990    -0.2030 c3         1 2ED      -0.074400
     38 C181       -10.0040     0.4550     0.1760 c3         1 2ED      -0.075400
     39 C191       -11.0890     1.4520    -0.2860 c3         1 2ED      -0.075400
     40 C20        -12.5160     1.0100     0.0920 c3         1 2ED      -0.088100
     41 H17         -0.1450    -2.7420     0.0620 hc         1 2ED       0.037700
     42 H18         -0.0060    -1.8800     1.5950 hc         1 2ED       0.037700
     43 H191        -0.8290     0.2210     0.4880 hc         1 2ED       0.037200
     44 H20         -0.9680    -0.6410    -1.0440 hc         1 2ED       0.037200
     45 H21         -2.6620    -2.1890    -0.0200 hc         1 2ED       0.037200
     46 H22         -2.5220    -1.3270     1.5130 hc         1 2ED       0.037200
     47 H23         -3.3430     0.7740     0.4060 hc         1 2ED       0.036700
     48 H24         -3.4820    -0.0880    -1.1270 hc         1 2ED       0.036700
     49 H25         -5.1760    -1.6350    -0.1030 hc         1 2ED       0.037200
     50 H26         -5.0370    -0.7740     1.4300 hc         1 2ED       0.037200
     51 H27         -5.8580     1.3280     0.3240 hc         1 2ED       0.036700
     52 H28         -5.9970     0.4660    -1.2090 hc         1 2ED       0.036700
     53 H29         -7.6910    -1.0820    -0.1850 hc         1 2ED       0.036700
     54 H30         -7.5520    -0.2200     1.3470 hc         1 2ED       0.036700
     55 H31         -8.3720     1.8810     0.2410 hc         1 2ED       0.036700
     56 H32         -8.5120     1.0200    -1.2920 hc         1 2ED       0.036700
     57 H33        -10.2060    -0.5280    -0.2680 hc         1 2ED       0.036700
     58 H34        -10.0670     0.3330     1.2650 hc         1 2ED       0.036700
     59 H35        -10.8920     2.4360     0.1580 hc         1 2ED       0.036200
     60 H36        -11.0310     1.5740    -1.3750 hc         1 2ED       0.036200
     61 H37        -13.2490     1.7470    -0.2560 hc         1 2ED       0.031367
     62 H38        -12.7570     0.0430    -0.3670 hc         1 2ED       0.031367
     63 H39        -12.6170     0.9120     1.1790 hc         1 2ED       0.031367
@<TRIPOS>BOND
     1     1    10 2   
     2     2    13 1   
     3     2    14 1   
     4     3     5 1   
     5     3    15 1   
     6     4     5 1   
     7     4    12 1   
     8     4    13 1   
     9     4    16 1   
    10     5     6 1   
    11     5    17 1   
    12     6     7 2   
    13     6    18 1   
    14     7     8 1   
    15     7    19 1   
    16     8     9 1   
    17     8    20 1   
    18     8    21 1   
    19     9    22 1   
    20     9    23 1   
    21     9    30 1   
    22    10    11 1   
    23    10    12 1   
    24    11    24 1   
    25    11    25 1   
    26    11    26 1   
    27    12    27 1   
    28    13    28 1   
    29    13    29 1   
    30    30    31 1   
    31    30    41 1   
    32    30    42 1   
    33    31    32 1   
    34    31    43 1   
    35    31    44 1   
    36    32    33 1   
    37    32    45 1   
    38    32    46 1   
    39    33    34 1   
    40    33    47 1   
    41    33    48 1   
    42    34    35 1   
    43    34    49 1   
    44    34    50 1   
    45    35    36 1   
    46    35    51 1   
    47    35    52 1   
    48    36    37 1   
    49    36    53 1   
    50    36    54 1   
    51    37    38 1   
    52    37    55 1   
    53    37    56 1   
    54    38    39 1   
    55    38    57 1   
    56    38    58 1   
    57    39    40 1   
    58    39    59 1   
    59    39    60 1   
    60    40    61 1   
    61    40    62 1   
    62    40    63 1   
@<TRIPOS>SUBSTRUCTURE
     1 2ED         1 TEMP              0 ****  ****    0 ROOT
