@<TRIPOS>MOLECULE
2ED
   63    62     1     0     0
SMALL
abcg2


@<TRIPOS>ATOM
      1 O2           3.3980     1.6900     0.7740 o          1 2ED      -0.608100
      2 O3           7.9020     1.1900    -1.0500 oh         1 2ED      -0.657000
      3 O1           6.5470    -1.3710    -0.6370 oh         1 2ED      -0.639000
      4 C1           6.0730     0.7740     0.4630 c3         1 2ED       0.074700
      5 C2           6.1160    -0.7690     0.5540 c3         1 2ED       0.201500
      6 C3           4.7860    -1.2730     1.0360 c2         1 2ED      -0.256200
      7 C4           3.9520    -2.0530     0.3590 c2         1 2ED      -0.200200
      8 C5           2.5850    -2.4310     0.8350 c3         1 2ED      -0.041200
      9 C6           1.4970    -1.6430     0.1030 c3         1 2ED      -0.076400
     10 C18          3.8910     1.6120    -0.3420 c          1 2ED       0.603100
     11 C19          3.1030     1.9590    -1.5800 c3         1 2ED      -0.181100
     12 N            5.1550     1.2050    -0.5670 ns         1 2ED      -0.510900
     13 C            7.4320     1.4270     0.2570 c3         1 2ED       0.153600
     14 HO3          8.5750     1.8470    -1.2480 ho         1 2ED       0.445000
     15 HO1          5.9200    -1.1570    -1.3370 ho         1 2ED       0.441000
     16 H1           5.7020     1.1410     1.4230 h1         1 2ED       0.085700
     17 H2           6.8740    -1.0160     1.3070 h1         1 2ED       0.079700
     18 H3           4.4900    -0.9090     2.0170 ha         1 2ED       0.182000
     19 H4           4.2250    -2.4210    -0.6270 ha         1 2ED       0.166000
     20 H5           2.4190    -3.5030     0.6820 hc         1 2ED       0.045200
     21 H5A          2.4970    -2.2490     1.9100 hc         1 2ED       0.045200
     22 H6           1.6530    -0.5770     0.2950 hc         1 2ED       0.042200
     23 H6A          1.6090    -1.7760    -0.9790 hc         1 2ED       0.042200
     24 H19          2.6390     2.9380    -1.4600 hc         1 2ED       0.060367
     25 H19A         3.6980     1.9640    -2.4920 hc         1 2ED       0.060367
     26 H19B         2.2990     1.2320    -1.7020 hc         1 2ED       0.060367
     27 HN           5.5110     1.2510    -1.5080 hn         1 2ED       0.323500
     28 H            8.1230     1.0380     1.0160 h1         1 2ED       0.029200
     29 HA           7.3190     2.5010     0.4480 h1         1 2ED       0.029200
     30 C10          0.0860    -2.0350     0.5210 c3         1 2ED      -0.073400
     31 C11         -0.9830    -1.1540    -0.1130 c3         1 2ED      -0.075400
     32 C12         -2.4030    -1.5180     0.3050 c3         1 2ED      -0.073400
     33 C13         -3.4450    -0.5400    -0.2240 c3         1 2ED      -0.074400
     34 C14         -4.8720    -0.8820     0.1880 c3         1 2ED      -0.073400
     35 C15         -5.8850     0.1680    -0.2510 c3         1 2ED      -0.074400
     36 C16         -7.3160    -0.1590     0.1540 c3         1 2ED      -0.074400
     37 C17         -8.3090     0.9340    -0.2210 c3         1 2ED      -0.074400
     38 C181        -9.7440     0.6120     0.1770 c3         1 2ED      -0.075400
     39 C191       -10.7280     1.7250    -0.1610 c3         1 2ED      -0.075400
     40 C20        -12.1600     1.3900     0.2330 c3         1 2ED      -0.088100
     41 H17         -0.0950    -3.0840     0.2630 hc         1 2ED       0.037700
     42 H18          0.0010    -1.9720     1.6120 hc         1 2ED       0.037700
     43 H191        -0.7890    -0.1100     0.1570 hc         1 2ED       0.037200
     44 H20         -0.8990    -1.2040    -1.2040 hc         1 2ED       0.037200
     45 H21         -2.6390    -2.5310    -0.0380 hc         1 2ED       0.037200
     46 H22         -2.4630    -1.5470     1.3990 hc         1 2ED       0.037200
     47 H23         -3.2000     0.4660     0.1340 hc         1 2ED       0.036700
     48 H24         -3.3820    -0.4940    -1.3170 hc         1 2ED       0.036700
     49 H25         -5.1500    -1.8570    -0.2270 hc         1 2ED       0.037200
     50 H26         -4.9180    -0.9920     1.2770 hc         1 2ED       0.037200
     51 H27         -5.6010     1.1360     0.1770 hc         1 2ED       0.036700
     52 H28         -5.8330     0.2930    -1.3380 hc         1 2ED       0.036700
     53 H29         -7.6210    -1.1040    -0.3090 hc         1 2ED       0.036700
     54 H30         -7.3580    -0.3270     1.2360 hc         1 2ED       0.036700
     55 H31         -8.0040     1.8740     0.2520 hc         1 2ED       0.036700
     56 H32         -8.2630     1.1120    -1.3020 hc         1 2ED       0.036700
     57 H33        -10.0610    -0.3140    -0.3160 hc         1 2ED       0.036700
     58 H34         -9.7860     0.4090     1.2540 hc         1 2ED       0.036700
     59 H35        -10.4140     2.6470     0.3380 hc         1 2ED       0.036200
     60 H36        -10.6840     1.9330    -1.2350 hc         1 2ED       0.036200
     61 H37        -12.8460     2.2010    -0.0150 hc         1 2ED       0.031367
     62 H38        -12.5100     0.4940    -0.2820 hc         1 2ED       0.031367
     63 H39        -12.2420     1.2050     1.3060 hc         1 2ED       0.031367
@<TRIPOS>BOND
     1     1    10 2   
     2     2    13 1   
     3     2    14 1   
     4     3     5 1   
     5     3    15 1   
     6     4     5 1   
     7     4    12 1   
     8     4    13 1   
     9     4    16 1   
    10     5     6 1   
    11     5    17 1   
    12     6     7 2   
    13     6    18 1   
    14     7     8 1   
    15     7    19 1   
    16     8     9 1   
    17     8    20 1   
    18     8    21 1   
    19     9    22 1   
    20     9    23 1   
    21     9    30 1   
    22    10    11 1   
    23    10    12 1   
    24    11    24 1   
    25    11    25 1   
    26    11    26 1   
    27    12    27 1   
    28    13    28 1   
    29    13    29 1   
    30    30    31 1   
    31    30    41 1   
    32    30    42 1   
    33    31    32 1   
    34    31    43 1   
    35    31    44 1   
    36    32    33 1   
    37    32    45 1   
    38    32    46 1   
    39    33    34 1   
    40    33    47 1   
    41    33    48 1   
    42    34    35 1   
    43    34    49 1   
    44    34    50 1   
    45    35    36 1   
    46    35    51 1   
    47    35    52 1   
    48    36    37 1   
    49    36    53 1   
    50    36    54 1   
    51    37    38 1   
    52    37    55 1   
    53    37    56 1   
    54    38    39 1   
    55    38    57 1   
    56    38    58 1   
    57    39    40 1   
    58    39    59 1   
    59    39    60 1   
    60    40    61 1   
    61    40    62 1   
    62    40    63 1   
@<TRIPOS>SUBSTRUCTURE
     1 2ED         1 TEMP              0 ****  ****    0 ROOT
