@<TRIPOS>MOLECULE
2EE
   60    62     1     0     0
SMALL
No Charge or Current Charge


@<TRIPOS>ATOM
      1 Cl         -37.2470   -13.0850    -4.4200 cl         1 2EE      -0.212000
      2 C5         -38.8130   -13.5070    -5.1030 ca         1 2EE       0.116000
      3 C4         -39.5470   -14.5710    -4.5620 ca         1 2EE      -0.086000
      4 C6         -39.3290   -12.7650    -6.1740 ca         1 2EE      -0.078000
      5 C7         -40.5820   -13.0950    -6.7280 ca         1 2EE      -0.076300
      6 C8         -41.3120   -14.1890    -6.2020 ca         1 2EE       0.113100
      7 O          -42.5160   -14.5140    -6.7910 os         1 2EE      -0.381100
      8 C9         -42.6580   -15.7680    -7.4830 c3         1 2EE       0.210900
      9 C10        -43.7400   -15.6170    -8.5440 ca         1 2EE      -0.115300
     10 C15        -45.0690   -15.3400    -8.1660 ca         1 2EE      -0.095500
     11 C14        -46.0710   -15.2110    -9.1440 ca         1 2EE      -0.116000
     12 C13        -45.7510   -15.3600   -10.5030 ca         1 2EE      -0.095000
     13 C12        -44.4270   -15.6320   -10.8860 ca         1 2EE      -0.116000
     14 C11        -43.4240   -15.7590    -9.9100 ca         1 2EE      -0.095500
     15 C3         -40.8030   -14.9220    -5.0960 ca         1 2EE      -0.094300
     16 C2         -41.5730   -16.0540    -4.4180 c3         1 2EE      -0.001900
     17 C1         -41.0260   -17.4200    -4.7840 c2         1 2EE      -0.221200
     18 C          -40.6900   -18.3800    -3.9090 c2         1 2EE      -0.311000
     19 C16        -41.1380   -12.2460    -7.8710 c3         1 2EE       0.207100
     20 N          -41.3680   -13.0560    -9.0830 n7         1 2EE      -0.858400
     21 C17        -41.8640   -12.3500   -10.2800 c3         1 2EE       0.157800
     22 C18        -43.3000   -11.8170   -10.0790 c3         1 2EE      -0.150400
     23 C19        -43.8590   -11.1050   -11.3270 c3         1 2EE       0.116000
     24 N1         -44.1010   -12.0360   -12.4330 ns         1 2EE      -0.517900
     25 C20        -45.3070   -12.6380   -12.6890 c          1 2EE       0.655100
     26 O1         -46.3180   -12.3920   -12.0520 o          1 2EE      -0.628100
     27 N2         -45.2280   -13.5310   -13.7350 ns         1 2EE      -0.409100
     28 C21        -46.2110   -14.3430   -14.2830 cc         1 2EE       0.047600
     29 C24        -45.9300   -15.2380   -15.3440 cc         1 2EE      -0.171000
     30 C23        -47.0090   -15.9690   -15.7650 cd         1 2EE      -0.223000
     31 S          -48.4560   -15.5590   -14.8310 ss         1 2EE       0.200000
     32 C22        -47.5230   -14.3860   -13.8860 cd         1 2EE      -0.266000
     33 H1         -39.1400   -15.1240    -3.7190 ha         1 2EE       0.132000
     34 H2         -38.7550   -11.9320    -6.5710 ha         1 2EE       0.134000
     35 H3         -42.9370   -16.5750    -6.7950 h1         1 2EE       0.050700
     36 H4         -41.7120   -16.0480    -7.9660 h1         1 2EE       0.050700
     37 H5         -45.3240   -15.2260    -7.1150 ha         1 2EE       0.117000
     38 H6         -47.0960   -14.9970    -8.8470 ha         1 2EE       0.115500
     39 H7         -46.5270   -15.2610   -11.2590 ha         1 2EE       0.130000
     40 H8         -44.1800   -15.7450   -11.9390 ha         1 2EE       0.115500
     41 H9         -42.4030   -15.9720   -10.2180 ha         1 2EE       0.117000
     42 H10        -41.5270   -15.9160    -3.3300 hc         1 2EE       0.061200
     43 H11        -42.6410   -15.9980    -4.6550 hc         1 2EE       0.061200
     44 H12        -40.9020   -17.5870    -5.8560 ha         1 2EE       0.166000
     45 H13        -40.2960   -19.3420    -4.2410 ha         1 2EE       0.164500
     46 H14        -40.7970   -18.2420    -2.8310 ha         1 2EE       0.164500
     47 H15        -40.4400   -11.4260    -8.0910 h1         1 2EE       0.046200
     48 H16        -42.0750   -11.7900    -7.5240 h1         1 2EE       0.046200
     49 H17        -42.0550   -13.7750    -8.8240 hn         1 2EE       0.414000
     50 H19        -41.8650   -13.0420   -11.1330 h1         1 2EE       0.044200
     51 H20        -41.1970   -11.5150   -10.5380 h1         1 2EE       0.044200
     52 H21        -43.3130   -11.0970    -9.2540 hc         1 2EE       0.060200
     53 H22        -43.9690   -12.6400    -9.7990 hc         1 2EE       0.060200
     54 H23        -43.1520   -10.3330   -11.6600 h1         1 2EE       0.063700
     55 H24        -44.7990   -10.6000   -11.0660 h1         1 2EE       0.063700
     56 H25        -43.3200   -12.2850   -13.0260 hn         1 2EE       0.302500
     57 H26        -44.3060   -13.6000   -14.1430 hn         1 2EE       0.311500
     58 H27        -44.9380   -15.3280   -15.7770 ha         1 2EE       0.130000
     59 H28        -47.0570   -16.7130   -16.5510 h4         1 2EE       0.151000
     60 H29        -48.0180   -13.8190   -13.1100 h4         1 2EE       0.181000
@<TRIPOS>BOND
     1     1     2 1   
     2     2     3 ar  
     3     2     4 ar  
     4     3    15 ar  
     5     3    33 1   
     6     4     5 ar  
     7     4    34 1   
     8     5     6 ar  
     9     5    19 1   
    10     6     7 1   
    11     6    15 ar  
    12     7     8 1   
    13     8     9 1   
    14     8    35 1   
    15     8    36 1   
    16     9    10 ar  
    17     9    14 ar  
    18    10    11 ar  
    19    10    37 1   
    20    11    12 ar  
    21    11    38 1   
    22    12    13 ar  
    23    12    39 1   
    24    13    14 ar  
    25    13    40 1   
    26    14    41 1   
    27    15    16 1   
    28    16    17 1   
    29    16    42 1   
    30    16    43 1   
    31    17    18 2   
    32    17    44 1   
    33    18    45 1   
    34    18    46 1   
    35    19    20 1   
    36    19    47 1   
    37    19    48 1   
    38    20    21 1   
    39    20    49 1   
    40    21    22 1   
    41    21    50 1   
    42    21    51 1   
    43    22    23 1   
    44    22    52 1   
    45    22    53 1   
    46    23    24 1   
    47    23    54 1   
    48    23    55 1   
    49    24    25 1   
    50    24    56 1   
    51    25    26 2   
    52    25    27 1   
    53    27    28 1   
    54    27    57 1   
    55    28    29 1   
    56    28    32 2   
    57    29    30 2   
    58    29    58 1   
    59    30    31 1   
    60    30    59 1   
    61    31    32 1   
    62    32    60 1   
@<TRIPOS>SUBSTRUCTURE
     1 2EE         1 TEMP              0 ****  ****    0 ROOT
