@<TRIPOS>MOLECULE
2EE
   60    62     1     0     0
SMALL
abcg2


@<TRIPOS>ATOM
      1 CL         -37.2790   -13.1460    -4.7950 cl         1 2EE      -0.212000
      2 C5         -38.8980   -13.5840    -5.3140 ca         1 2EE       0.116000
      3 C4         -39.5360   -14.6540    -4.7140 ca         1 2EE      -0.086000
      4 C6         -39.5180   -12.8390    -6.3060 ca         1 2EE      -0.078000
      5 C7         -40.7980   -13.1820    -6.7280 ca         1 2EE      -0.076300
      6 C8         -41.4340   -14.2860    -6.1420 ca         1 2EE       0.113100
      7 O          -42.7080   -14.5850    -6.5690 os         1 2EE      -0.381100
      8 C9         -42.8810   -15.8260    -7.3040 c3         1 2EE       0.210900
      9 C10        -43.7770   -15.5930    -8.4860 ca         1 2EE      -0.115300
     10 C15        -45.0790   -15.1220    -8.3030 ca         1 2EE      -0.095500
     11 C14        -45.9110   -14.9120    -9.3950 ca         1 2EE      -0.116000
     12 C13        -45.4550   -15.1780   -10.6840 ca         1 2EE      -0.095000
     13 C12        -44.1610   -15.6440   -10.8760 ca         1 2EE      -0.116000
     14 C11        -43.3260   -15.8500    -9.7800 ca         1 2EE      -0.095500
     15 C3         -40.8240   -15.0120    -5.1130 ca         1 2EE      -0.094300
     16 C2         -41.5210   -16.1510    -4.3990 c3         1 2EE      -0.001900
     17 C1         -41.0030   -17.5010    -4.8160 c2         1 2EE      -0.221200
     18 C          -40.4240   -18.3690    -3.9930 c2         1 2EE      -0.311000
     19 C16        -41.4850   -12.3710    -7.7960 c3         1 2EE       0.207100
     20 N          -41.3740   -13.0130    -9.1100 n7         1 2EE      -0.858400
     21 C17        -41.9010   -12.2130   -10.2160 c3         1 2EE       0.157800
     22 C18        -43.3620   -11.7650   -10.1060 c3         1 2EE      -0.150400
     23 C19        -43.8500   -11.0520   -11.3690 c3         1 2EE       0.116000
     24 N1         -44.0190   -11.9380   -12.5110 ns         1 2EE      -0.517900
     25 C20        -45.2110   -12.5360   -12.7830 c          1 2EE       0.655100
     26 O1         -46.2700   -12.2130   -12.2430 o          1 2EE      -0.628100
     27 N2         -45.1380   -13.5260   -13.7390 ns         1 2EE      -0.409100
     28 C21        -46.1900   -14.3250   -14.1860 cc         1 2EE       0.047600
     29 C24        -45.9260   -15.4200   -15.0710 cc         1 2EE      -0.171000
     30 C23        -47.0520   -16.1070   -15.4090 cd         1 2EE      -0.223000
     31 S          -48.4480   -15.4410   -14.6610 ss         1 2EE       0.200000
     32 C22        -47.5230   -14.2130   -13.8770 cd         1 2EE      -0.266000
     33 H1         -39.0470   -15.2090    -3.9240 ha         1 2EE       0.132000
     34 H2         -39.0120   -11.9920    -6.7500 ha         1 2EE       0.134000
     35 H3         -43.3220   -16.5630    -6.6290 h1         1 2EE       0.050700
     36 H4         -41.9070   -16.1920    -7.6290 h1         1 2EE       0.050700
     37 H5         -45.4390   -14.9200    -7.3010 ha         1 2EE       0.117000
     38 H6         -46.9170   -14.5430    -9.2430 ha         1 2EE       0.115500
     39 H7         -46.1060   -15.0150   -11.5310 ha         1 2EE       0.130000
     40 H8         -43.7990   -15.8410   -11.8770 ha         1 2EE       0.115500
     41 H9         -42.3160   -16.2110    -9.9310 ha         1 2EE       0.117000
     42 H10        -41.3760   -16.0320    -3.3240 hc         1 2EE       0.061200
     43 H11        -42.5930   -16.0880    -4.5900 hc         1 2EE       0.061200
     44 H12        -41.1110   -17.7510    -5.8670 ha         1 2EE       0.166000
     45 H13        -40.0640   -19.3280    -4.3450 ha         1 2EE       0.164500
     46 H14        -40.2940   -18.1480    -2.9390 ha         1 2EE       0.164500
     47 H15        -40.9990   -11.3950    -7.8640 h1         1 2EE       0.046200
     48 H16        -42.5250   -12.1990    -7.4960 h1         1 2EE       0.046200
     49 H17        -41.8740   -13.8950    -9.0870 hn         1 2EE       0.414000
     50 H19        -41.7690   -12.8090   -11.1230 h1         1 2EE       0.044200
     51 H20        -41.2660   -11.3260   -10.3250 h1         1 2EE       0.044200
     52 H21        -43.4780   -11.0780    -9.2640 hc         1 2EE       0.060200
     53 H22        -44.0030   -12.6300    -9.9110 hc         1 2EE       0.060200
     54 H23        -43.1460   -10.2650   -11.6510 h1         1 2EE       0.063700
     55 H24        -44.8130   -10.5800   -11.1840 h1         1 2EE       0.063700
     56 H25        -43.1870   -12.3050   -12.9450 hn         1 2EE       0.302500
     57 H26        -44.2240   -13.7750   -14.0850 hn         1 2EE       0.311500
     58 H27        -44.9350   -15.6700   -15.4250 ha         1 2EE       0.130000
     59 H28        -47.1340   -16.9670   -16.0540 h4         1 2EE       0.151000
     60 H29        -47.9950   -13.4920   -13.2380 h4         1 2EE       0.181000
@<TRIPOS>BOND
     1     1     2 1   
     2     2     3 ar  
     3     2     4 ar  
     4     3    15 ar  
     5     3    33 1   
     6     4     5 ar  
     7     4    34 1   
     8     5     6 ar  
     9     5    19 1   
    10     6     7 1   
    11     6    15 ar  
    12     7     8 1   
    13     8     9 1   
    14     8    35 1   
    15     8    36 1   
    16     9    10 ar  
    17     9    14 ar  
    18    10    11 ar  
    19    10    37 1   
    20    11    12 ar  
    21    11    38 1   
    22    12    13 ar  
    23    12    39 1   
    24    13    14 ar  
    25    13    40 1   
    26    14    41 1   
    27    15    16 1   
    28    16    17 1   
    29    16    42 1   
    30    16    43 1   
    31    17    18 2   
    32    17    44 1   
    33    18    45 1   
    34    18    46 1   
    35    19    20 1   
    36    19    47 1   
    37    19    48 1   
    38    20    21 1   
    39    20    49 1   
    40    21    22 1   
    41    21    50 1   
    42    21    51 1   
    43    22    23 1   
    44    22    52 1   
    45    22    53 1   
    46    23    24 1   
    47    23    54 1   
    48    23    55 1   
    49    24    25 1   
    50    24    56 1   
    51    25    26 2   
    52    25    27 1   
    53    27    28 1   
    54    27    57 1   
    55    28    29 1   
    56    28    32 2   
    57    29    30 2   
    58    29    58 1   
    59    30    31 1   
    60    30    59 1   
    61    31    32 1   
    62    32    60 1   
@<TRIPOS>SUBSTRUCTURE
     1 2EE         1 TEMP              0 ****  ****    0 ROOT
