@<TRIPOS>MOLECULE
2EF
   46    47     1     0     0
SMALL
abcg2


@<TRIPOS>ATOM
      1 I           41.9250    16.7600    -4.9130 i          1 2EF      -0.286000
      2 C16         40.9160    15.0240    -5.5730 ca         1 2EF       0.180000
      3 C2          41.6520    13.9290    -6.0360 ca         1 2EF       0.144100
      4 O           43.0180    13.9810    -6.0760 os         1 2EF      -0.371100
      5 C1          43.6880    13.4930    -4.8890 c3         1 2EF       0.164600
      6 C           45.1700    13.7020    -5.0770 c3         1 2EF      -0.095100
      7 C15         39.5280    15.0140    -5.5640 ca         1 2EF      -0.060000
      8 C14         38.8790    13.8790    -6.0290 ca         1 2EF       0.111000
      9 CL          37.1280    13.8380    -6.0190 cl         1 2EF      -0.200000
     10 C13         39.5840    12.7850    -6.5030 ca         1 2EF      -0.080000
     11 C3          40.9770    12.8000    -6.5150 ca         1 2EF      -0.138300
     12 C4          41.7210    11.6220    -7.1190 c3         1 2EF       0.210100
     13 N           41.7370    11.6070    -8.5840 n7         1 2EF      -0.857400
     14 C5          42.4110    12.7560    -9.1860 c3         1 2EF       0.158800
     15 C6          42.3910    12.6610   -10.7050 c3         1 2EF      -0.097400
     16 C7          43.0800    13.8550   -11.3490 c3         1 2EF       0.115000
     17 N1          43.0280    13.7500   -12.8000 ns         1 2EF      -0.518900
     18 C8          43.6880    14.6340   -13.5950 c          1 2EF       0.654100
     19 O1          44.4870    15.4620   -13.1540 o          1 2EF      -0.626100
     20 N2          43.4060    14.5120   -14.9380 ns         1 2EF      -0.407100
     21 C9          43.9440    15.2770   -15.9730 cc         1 2EF       0.051600
     22 C12         43.5300    15.0350   -17.3230 cc         1 2EF      -0.170000
     23 C11         44.1400    15.8610   -18.2170 cd         1 2EF      -0.225000
     24 S           45.2240    16.9430   -17.4390 ss         1 2EF       0.196000
     25 C10         44.8650    16.2900   -15.8830 cd         1 2EF      -0.260000
     26 H1          43.3150    14.0420    -4.0210 h1         1 2EF       0.036200
     27 H2          43.4450    12.4350    -4.7570 h1         1 2EF       0.036200
     28 H3          45.7070    13.3330    -4.2020 hc         1 2EF       0.050367
     29 H4          45.5280    13.1620    -5.9550 hc         1 2EF       0.050367
     30 H5          45.3970    14.7620    -5.2000 hc         1 2EF       0.050367
     31 H6          38.9640    15.8640    -5.2090 ha         1 2EF       0.145000
     32 H7          39.0530    11.9160    -6.8710 ha         1 2EF       0.133000
     33 H8          41.2480    10.7000    -6.7800 h1         1 2EF       0.065700
     34 H9          42.7530    11.6140    -6.7730 h1         1 2EF       0.065700
     35 H10         40.7820    11.5610    -8.9270 hn         1 2EF       0.405000
     36 H12         43.4440    12.7620    -8.8280 h1         1 2EF       0.044700
     37 H13         41.9660    13.7130    -8.8790 h1         1 2EF       0.044700
     38 H14         41.3510    12.6120   -11.0490 hc         1 2EF       0.048200
     39 H15         42.8800    11.7360   -11.0210 hc         1 2EF       0.048200
     40 H16         44.1260    13.8960   -11.0400 h1         1 2EF       0.055200
     41 H17         42.6080    14.7850   -11.0140 h1         1 2EF       0.055200
     42 H18         42.2650    13.2200   -13.1920 hn         1 2EF       0.301500
     43 H19         42.7480    13.8020   -15.2180 hn         1 2EF       0.312500
     44 H20         42.8090    14.2760   -17.5960 ha         1 2EF       0.129000
     45 H21         44.0100    15.8900   -19.2870 h4         1 2EF       0.150000
     46 H22         45.3400    16.6760   -15.0010 h4         1 2EF       0.181000
@<TRIPOS>BOND
     1     1     2 1   
     2     2     3 ar  
     3     2     7 ar  
     4     3     4 1   
     5     3    11 ar  
     6     4     5 1   
     7     5     6 1   
     8     5    26 1   
     9     5    27 1   
    10     6    28 1   
    11     6    29 1   
    12     6    30 1   
    13     7     8 ar  
    14     7    31 1   
    15     8     9 1   
    16     8    10 ar  
    17    10    11 ar  
    18    10    32 1   
    19    11    12 1   
    20    12    13 1   
    21    12    33 1   
    22    12    34 1   
    23    13    14 1   
    24    13    35 1   
    25    14    15 1   
    26    14    36 1   
    27    14    37 1   
    28    15    16 1   
    29    15    38 1   
    30    15    39 1   
    31    16    17 1   
    32    16    40 1   
    33    16    41 1   
    34    17    18 1   
    35    17    42 1   
    36    18    19 2   
    37    18    20 1   
    38    20    21 1   
    39    20    43 1   
    40    21    22 1   
    41    21    25 2   
    42    22    23 2   
    43    22    44 1   
    44    23    24 1   
    45    23    45 1   
    46    24    25 1   
    47    25    46 1   
@<TRIPOS>SUBSTRUCTURE
     1 2EF         1 TEMP              0 ****  ****    0 ROOT
