@<TRIPOS>MOLECULE
2EF
   46    47     1     0     0
SMALL
No Charge or Current Charge


@<TRIPOS>ATOM
      1 I           41.8910    16.6890    -4.5620 i          1 2EF      -0.286000
      2 C16         40.8690    14.9500    -5.3830 ca         1 2EF       0.180000
      3 C2          41.5910    13.8720    -5.9460 ca         1 2EF       0.144100
      4 O           42.9670    13.9060    -5.9740 os         1 2EF      -0.371100
      5 C1          43.7010    13.4400    -4.8320 c3         1 2EF       0.164600
      6 C           45.1950    13.5970    -5.1480 c3         1 2EF      -0.095100
      7 C15         39.4660    14.9210    -5.3590 ca         1 2EF      -0.060000
      8 C14         38.7800    13.8240    -5.9000 ca         1 2EF       0.111000
      9 Cl          37.0210    13.7890    -5.8700 cl         1 2EF      -0.200000
     10 C13         39.4900    12.7570    -6.4740 ca         1 2EF      -0.080000
     11 C3          40.9010    12.7720    -6.5080 ca         1 2EF      -0.138300
     12 C4          41.6430    11.6040    -7.1520 c3         1 2EF       0.210100
     13 N           41.6400    11.7230    -8.6250 n7         1 2EF      -0.857400
     14 C5          42.4080    12.8560    -9.1760 c3         1 2EF       0.158800
     15 C6          42.3710    12.8200   -10.7150 c3         1 2EF      -0.097400
     16 C7          43.1660    13.9760   -11.3480 c3         1 2EF       0.115000
     17 N1          43.1200    13.9270   -12.8100 ns         1 2EF      -0.518900
     18 C8          43.7240    14.8500   -13.6250 c          1 2EF       0.654100
     19 O1          44.3550    15.7980   -13.1880 o          1 2EF      -0.626100
     20 N2          43.5290    14.5730   -14.9600 ns         1 2EF      -0.407100
     21 C9          43.9740    15.2600   -16.0820 cc         1 2EF       0.051600
     22 C12         43.6710    14.8200   -17.3930 cc         1 2EF      -0.170000
     23 C11         44.1860    15.6100   -18.3860 cd         1 2EF      -0.225000
     24 S           45.0920    16.9710   -17.7080 ss         1 2EF       0.196000
     25 C10         44.7310    16.4040   -16.0680 cd         1 2EF      -0.260000
     26 H1          43.4500    14.0250    -3.9380 h1         1 2EF       0.036200
     27 H2          43.4750    12.3850    -4.6290 h1         1 2EF       0.036200
     28 H3          45.8010    13.2480    -4.3040 hc         1 2EF       0.050367
     29 H4          45.4660    13.0070    -6.0330 hc         1 2EF       0.050367
     30 H5          45.4410    14.6480    -5.3380 hc         1 2EF       0.050367
     31 H6          38.9140    15.7490    -4.9250 ha         1 2EF       0.145000
     32 H7          38.9420    11.9180    -6.8950 ha         1 2EF       0.133000
     33 H8          41.1480    10.6700    -6.8500 h1         1 2EF       0.065700
     34 H9          42.6720    11.5450    -6.7710 h1         1 2EF       0.065700
     35 H10         40.6650    11.8120    -8.9340 hn         1 2EF       0.405000
     36 H12         43.4540    12.8080    -8.8420 h1         1 2EF       0.044700
     37 H13         41.9910    13.8130    -8.8330 h1         1 2EF       0.044700
     38 H14         41.3300    12.8700   -11.0550 hc         1 2EF       0.048200
     39 H15         42.7850    11.8650   -11.0640 hc         1 2EF       0.048200
     40 H16         44.2140    13.9240   -11.0240 h1         1 2EF       0.055200
     41 H17         42.7490    14.9360   -11.0120 h1         1 2EF       0.055200
     42 H18         42.6150    13.1690   -13.2500 hn         1 2EF       0.301500
     43 H19         42.9780    13.7430   -15.1280 hn         1 2EF       0.312500
     44 H20         43.0800    13.9280   -17.5810 ha         1 2EF       0.129000
     45 H21         44.0970    15.4910   -19.4600 h4         1 2EF       0.150000
     46 H22         45.1080    16.9620   -15.2220 h4         1 2EF       0.181000
@<TRIPOS>BOND
     1     1     2 1   
     2     2     3 ar  
     3     2     7 ar  
     4     3     4 1   
     5     3    11 ar  
     6     4     5 1   
     7     5     6 1   
     8     5    26 1   
     9     5    27 1   
    10     6    28 1   
    11     6    29 1   
    12     6    30 1   
    13     7     8 ar  
    14     7    31 1   
    15     8     9 1   
    16     8    10 ar  
    17    10    11 ar  
    18    10    32 1   
    19    11    12 1   
    20    12    13 1   
    21    12    33 1   
    22    12    34 1   
    23    13    14 1   
    24    13    35 1   
    25    14    15 1   
    26    14    36 1   
    27    14    37 1   
    28    15    16 1   
    29    15    38 1   
    30    15    39 1   
    31    16    17 1   
    32    16    40 1   
    33    16    41 1   
    34    17    18 1   
    35    17    42 1   
    36    18    19 2   
    37    18    20 1   
    38    20    21 1   
    39    20    43 1   
    40    21    22 1   
    41    21    25 2   
    42    22    23 2   
    43    22    44 1   
    44    23    24 1   
    45    23    45 1   
    46    24    25 1   
    47    25    46 1   
@<TRIPOS>SUBSTRUCTURE
     1 2EF         1 TEMP              0 ****  ****    0 ROOT
