@<TRIPOS>MOLECULE
2EH
   27    26     1     0     0
SMALL
abcg2


@<TRIPOS>ATOM
      1 C7           1.2930     1.4300     0.3720 c3         1 2EH       0.162600
      2 C8           2.1450    -0.9370     0.3070 c3         1 2EH      -0.071400
      3 C9           2.1150    -2.2830    -0.4050 c3         1 2EH      -0.088100
      4 C12         -1.5640     0.1840    -0.1790 c3         1 2EH      -0.077400
      5 C7A          1.0070     0.0080    -0.0930 c3         1 2EH      -0.060700
      6 O7C          2.4360     1.9290    -0.2920 oh         1 2EH      -0.664000
      7 CBA         -0.3410    -0.4690     0.4580 c3         1 2EH      -0.076400
      8 CCA         -2.8760    -0.3800     0.3500 c3         1 2EH      -0.075400
      9 CCB         -4.0980     0.2530    -0.3000 c3         1 2EH      -0.089100
     10 H7           0.4220     2.0680     0.1740 h1         1 2EH       0.016700
     11 H7A          1.4350     1.4210     1.4620 h1         1 2EH       0.016700
     12 H8           2.1130    -1.0900     1.3910 hc         1 2EH       0.044200
     13 H8A          3.1030    -0.4570     0.0960 hc         1 2EH       0.044200
     14 H9           1.2060    -2.8470    -0.1930 hc         1 2EH       0.030367
     15 H9A          2.1780    -2.1540    -1.4870 hc         1 2EH       0.030367
     16 H9B          2.9570    -2.9050    -0.1000 hc         1 2EH       0.030367
     17 H12         -1.5520     1.2660    -0.0150 hc         1 2EH       0.037700
     18 H12A        -1.5200     0.0430    -1.2650 hc         1 2EH       0.037700
     19 H7AA         0.9380     0.0200    -1.1890 hc         1 2EH       0.060700
     20 HO7C         2.6080     2.8150     0.0380 ho         1 2EH       0.440000
     21 HBA         -0.3640    -0.3120     1.5440 hc         1 2EH       0.040200
     22 HBAA        -0.4230    -1.5500     0.3160 hc         1 2EH       0.040200
     23 HCA         -2.8950    -1.4620     0.1910 hc         1 2EH       0.036200
     24 HCAA        -2.9220    -0.2350     1.4340 hc         1 2EH       0.036200
     25 HCB         -5.0250    -0.1630     0.0960 hc         1 2EH       0.031367
     26 HCBA        -4.1220     1.3320    -0.1300 hc         1 2EH       0.031367
     27 HCBB        -4.0980     0.0930    -1.3800 hc         1 2EH       0.031367
@<TRIPOS>BOND
     1     1     5 1   
     2     1     6 1   
     3     1    10 1   
     4     1    11 1   
     5     2     3 1   
     6     2     5 1   
     7     2    12 1   
     8     2    13 1   
     9     3    14 1   
    10     3    15 1   
    11     3    16 1   
    12     4     7 1   
    13     4     8 1   
    14     4    17 1   
    15     4    18 1   
    16     5     7 1   
    17     5    19 1   
    18     6    20 1   
    19     7    21 1   
    20     7    22 1   
    21     8     9 1   
    22     8    23 1   
    23     8    24 1   
    24     9    25 1   
    25     9    26 1   
    26     9    27 1   
@<TRIPOS>SUBSTRUCTURE
     1 2EH         1 TEMP              0 ****  ****    0 ROOT
