@<TRIPOS>MOLECULE
2EH
   27    26     1     0     0
SMALL
No Charge or Current Charge


@<TRIPOS>ATOM
      1 C7           1.2730     1.4680     0.2950 c3         1 2EH       0.162600
      2 C8           2.2130    -0.9290     0.3030 c3         1 2EH      -0.071400
      3 C9           2.1620    -2.3760    -0.2350 c3         1 2EH      -0.088100
      4 C12         -1.5820     0.2350    -0.1430 c3         1 2EH      -0.077400
      5 C7A          1.0340    -0.0080    -0.1440 c3         1 2EH      -0.060700
      6 O7C          2.4630     1.9980    -0.3030 oh         1 2EH      -0.664000
      7 CBA         -0.3420    -0.5470     0.3570 c3         1 2EH      -0.076400
      8 CCA         -2.9150    -0.4370     0.2540 c3         1 2EH      -0.075400
      9 CCB         -4.1520     0.3410    -0.2360 c3         1 2EH      -0.089100
     10 H7           0.4200     2.0870    -0.0060 h1         1 2EH       0.016700
     11 H7A          1.3450     1.5120     1.3900 h1         1 2EH       0.016700
     12 H8           2.2590    -0.9570     1.3990 hc         1 2EH       0.044200
     13 H8A          3.1620    -0.4920    -0.0330 hc         1 2EH       0.044200
     14 H9           1.3420    -2.9440     0.2200 hc         1 2EH       0.030367
     15 H9A          2.0330    -2.3830    -1.3240 hc         1 2EH       0.030367
     16 H9B          3.0970    -2.8990     0.0000 hc         1 2EH       0.030367
     17 H12         -1.5730     1.2510     0.2680 hc         1 2EH       0.037700
     18 H12A        -1.5360     0.3250    -1.2350 hc         1 2EH       0.037700
     19 H7AA         1.0080    -0.0170    -1.2410 hc         1 2EH       0.060700
     20 HO7C         2.5540     2.9230     0.0150 ho         1 2EH       0.440000
     21 HBA         -0.3460    -0.5630     1.4550 hc         1 2EH       0.040200
     22 HBAA        -0.4600    -1.5860     0.0300 hc         1 2EH       0.040200
     23 HCA         -2.9480    -1.4530    -0.1580 hc         1 2EH       0.036200
     24 HCAA        -2.9630    -0.5320     1.3460 hc         1 2EH       0.036200
     25 HCB         -5.0720    -0.1730     0.0680 hc         1 2EH       0.031367
     26 HCBA        -4.1680     1.3520     0.1890 hc         1 2EH       0.031367
     27 HCBB        -4.1500     0.4240    -1.3290 hc         1 2EH       0.031367
@<TRIPOS>BOND
     1     1     5 1   
     2     1     6 1   
     3     1    10 1   
     4     1    11 1   
     5     2     3 1   
     6     2     5 1   
     7     2    12 1   
     8     2    13 1   
     9     3    14 1   
    10     3    15 1   
    11     3    16 1   
    12     4     7 1   
    13     4     8 1   
    14     4    17 1   
    15     4    18 1   
    16     5     7 1   
    17     5    19 1   
    18     6    20 1   
    19     7    21 1   
    20     7    22 1   
    21     8     9 1   
    22     8    23 1   
    23     8    24 1   
    24     9    25 1   
    25     9    26 1   
    26     9    27 1   
@<TRIPOS>SUBSTRUCTURE
     1 2EH         1 TEMP              0 ****  ****    0 ROOT
