@<TRIPOS>MOLECULE
2EI
   73    78     1     0     0
SMALL
abcg2


@<TRIPOS>ATOM
      1 C1           1.7440    37.2080   -24.0700 c5         1 2EI       0.114700
      2 C2           1.9300    35.9170   -24.8790 c5         1 2EI      -0.109400
      3 C3           1.2490    34.8220   -24.0580 c5         1 2EI       0.090300
      4 C7           1.6430    37.8070   -19.1050 c3         1 2EI      -0.077100
      5 C8          -1.2020    35.2870   -23.6480 cc         1 2EI      -0.141000
      6 C9          -2.3520    35.0130   -24.3600 cd         1 2EI      -0.162000
      7 C10         -1.8930    34.2860   -25.4840 cd         1 2EI       0.324500
      8 C11         -2.6740    33.7360   -26.6010 ca         1 2EI      -0.085500
      9 C12         -3.5520    34.5480   -27.3090 ca         1 2EI      -0.125000
     10 C13         -4.2870    34.0090   -28.3570 ca         1 2EI      -0.080000
     11 C14         -4.1680    32.6730   -28.6920 ca         1 2EI      -0.137000
     12 C15         -3.2910    31.8530   -27.9790 ca         1 2EI       0.134100
     13 C16         -2.5320    32.3900   -26.9430 ca         1 2EI      -0.175000
     14 C19         -4.2390    27.8180   -27.6780 ca         1 2EI      -0.096000
     15 C20         -4.6840    26.5640   -28.0620 ca         1 2EI      -0.043000
     16 C21         -3.8110    25.7610   -28.7770 ca         1 2EI      -0.150600
     17 C22         -2.5360    26.1840   -29.1030 ca         1 2EI      -0.089300
     18 C24         -1.8480    25.0980   -29.8700 c5         1 2EI       0.144300
     19 C27         -3.7090    35.3820   -23.9690 ca         1 2EI       0.049000
     20 C30         -6.0670    34.9760   -23.8200 ca         1 2EI       0.333400
     21 C31         -4.8110    34.5690   -24.2350 ca         1 2EI      -0.161500
     22 C25         -4.0150    24.3950   -29.3060 c          1 2EI       0.581600
     23 N3          -2.8570    24.0630   -29.9260 n          1 2EI      -0.420800
     24 C26         -2.6130    22.8170   -30.5980 c3         1 2EI       0.098300
     25 C23         -2.0890    27.4370   -28.7210 ca         1 2EI      -0.079000
     26 C18         -2.9510    28.2570   -28.0000 ca         1 2EI      -0.073300
     27 C17         -2.5260    29.6300   -27.5690 c3         1 2EI       0.207900
     28 O1          -3.2560    30.5590   -28.3560 os         1 2EI      -0.344100
     29 N4          -6.3020    36.1070   -23.1630 nb         1 2EI      -0.666000
     30 C29         -5.2530    36.8790   -22.9020 ca         1 2EI       0.333400
     31 C28         -3.9570    36.5700   -23.2810 ca         1 2EI      -0.161500
     32 N2          -0.5810    34.1400   -25.4400 nc         1 2EI      -0.521800
     33 N1          -0.1810    34.7420   -24.3240 na         1 2EI       0.137800
     34 C4           1.5440    35.2540   -22.6340 c5         1 2EI       0.083000
     35 N            1.5400    36.7090   -22.7030 n          1 2EI      -0.429800
     36 C            0.6000    38.0790   -24.5750 c3         1 2EI      -0.103100
     37 C5           1.6510    37.5160   -21.6250 c          1 2EI       0.602100
     38 O            1.8350    38.7200   -21.7370 o          1 2EI      -0.589100
     39 C6           1.5240    36.8430   -20.2720 c3         1 2EI      -0.154400
     40 H1           2.6620    37.8010   -24.0990 h1         1 2EI       0.067700
     41 H2           2.9890    35.6690   -24.9580 hc         1 2EI       0.073700
     42 H3           1.5340    35.9920   -25.8910 hc         1 2EI       0.073700
     43 H4           1.6600    33.8360   -24.2670 h1         1 2EI       0.094700
     44 H5           1.5450    37.2630   -18.1660 hc         1 2EI       0.043700
     45 H6           2.6070    38.3120   -19.0950 hc         1 2EI       0.043700
     46 H7           0.8650    38.5690   -19.1280 hc         1 2EI       0.043700
     47 H8          -1.0750    35.8110   -22.7140 h4         1 2EI       0.164000
     48 H9          -3.6550    35.5930   -27.0500 ha         1 2EI       0.124000
     49 H10         -4.9680    34.6390   -28.9150 ha         1 2EI       0.118000
     50 H11         -4.7550    32.2520   -29.4990 ha         1 2EI       0.129000
     51 H12         -1.8410    31.7790   -26.3780 ha         1 2EI       0.124000
     52 H14         -5.6790    26.2240   -27.8080 ha         1 2EI       0.138000
     53 H15         -0.9440    24.7440   -29.3640 h1         1 2EI       0.060700
     54 H16         -1.5570    25.4210   -30.8750 h1         1 2EI       0.060700
     55 H17         -6.9280    34.3470   -24.0250 h4         1 2EI       0.017600
     56 H18         -4.6990    33.6220   -24.7440 ha         1 2EI       0.125000
     57 H19         -3.4950    22.1860   -30.5230 h1         1 2EI       0.043367
     58 H20         -2.3930    22.9810   -31.6540 h1         1 2EI       0.043367
     59 H21         -1.7700    22.2900   -30.1490 h1         1 2EI       0.043367
     60 H22         -1.0920    27.7790   -28.9720 ha         1 2EI       0.121000
     61 H23         -1.4480    29.7680   -27.7030 h1         1 2EI       0.045200
     62 H24         -2.7520    29.7690   -26.5060 h1         1 2EI       0.045200
     63 H25         -5.4500    37.8010   -22.3670 h4         1 2EI       0.017600
     64 H26         -3.1550    37.2600   -23.0520 ha         1 2EI       0.125000
     65 H27          0.8250    34.8650   -21.9130 h1         1 2EI       0.058700
     66 H28          2.5280    34.8690   -22.3510 h1         1 2EI       0.058700
     67 H29          0.4580    38.9530   -23.9420 hc         1 2EI       0.050033
     68 H30          0.8320    38.4310   -25.5810 hc         1 2EI       0.050033
     69 H31         -0.3420    37.5340   -24.6230 hc         1 2EI       0.050033
     70 H32          0.5650    36.3170   -20.2300 hc         1 2EI       0.053200
     71 H33          2.2870    36.0620   -20.1880 hc         1 2EI       0.053200
     72 H13         -4.8950    28.4670   -27.1100 ha         1 2EI       0.124000
     73 O2          -5.0160    23.7050   -29.2080 o          1 2EI      -0.541000
@<TRIPOS>BOND
     1     1     2 1   
     2     1    35 1   
     3     1    36 1   
     4     1    40 1   
     5     2     3 1   
     6     2    41 1   
     7     2    42 1   
     8     3    33 1   
     9     3    34 1   
    10     3    43 1   
    11     4    39 1   
    12     4    44 1   
    13     4    45 1   
    14     4    46 1   
    15     5     6 2   
    16     5    33 1   
    17     5    47 1   
    18     6     7 1   
    19     6    19 1   
    20     7     8 1   
    21     7    32 2   
    22     8     9 ar  
    23     8    13 ar  
    24     9    10 ar  
    25     9    48 1   
    26    10    11 ar  
    27    10    49 1   
    28    11    12 ar  
    29    11    50 1   
    30    12    13 ar  
    31    12    28 1   
    32    13    51 1   
    33    14    15 ar  
    34    14    26 ar  
    35    14    72 1   
    36    15    16 ar  
    37    15    52 1   
    38    16    17 ar  
    39    16    22 1   
    40    17    18 1   
    41    17    25 ar  
    42    18    23 1   
    43    18    53 1   
    44    18    54 1   
    45    19    21 ar  
    46    19    31 ar  
    47    20    21 ar  
    48    20    29 ar  
    49    20    55 1   
    50    21    56 1   
    51    22    23 1   
    52    22    73 2   
    53    23    24 1   
    54    24    57 1   
    55    24    58 1   
    56    24    59 1   
    57    25    26 ar  
    58    25    60 1   
    59    26    27 1   
    60    27    28 1   
    61    27    61 1   
    62    27    62 1   
    63    29    30 ar  
    64    30    31 ar  
    65    30    63 1   
    66    31    64 1   
    67    32    33 1   
    68    34    35 1   
    69    34    65 1   
    70    34    66 1   
    71    35    37 1   
    72    36    67 1   
    73    36    68 1   
    74    36    69 1   
    75    37    38 2   
    76    37    39 1   
    77    39    70 1   
    78    39    71 1   
@<TRIPOS>SUBSTRUCTURE
     1 2EI         1 TEMP              0 ****  ****    0 ROOT
