@<TRIPOS>MOLECULE
2EI
   73    78     1     0     0
SMALL
No Charge or Current Charge


@<TRIPOS>ATOM
      1 C1           1.9860    36.6840   -24.1760 c5         1 2EI       0.114700
      2 C2           2.0240    35.1730   -24.5600 c5         1 2EI      -0.109400
      3 C3           1.0170    34.4990   -23.5800 c5         1 2EI       0.090300
      4 C7           1.8960    38.7290   -19.4560 c3         1 2EI      -0.077100
      5 C8          -1.4060    35.3440   -23.4020 cc         1 2EI      -0.141000
      6 C9          -2.5410    35.0180   -24.0960 cd         1 2EI      -0.162000
      7 C10         -2.1250    34.1150   -25.1190 cd         1 2EI       0.324500
      8 C11         -2.9280    33.5640   -26.2270 ca         1 2EI      -0.085500
      9 C12         -3.6630    34.4260   -27.0670 ca         1 2EI      -0.125000
     10 C13         -4.3980    33.9120   -28.1470 ca         1 2EI      -0.080000
     11 C14         -4.3880    32.5330   -28.4090 ca         1 2EI      -0.137000
     12 C15         -3.6390    31.6630   -27.6010 ca         1 2EI       0.134100
     13 C16         -2.9010    32.1820   -26.5140 ca         1 2EI      -0.175000
     14 C19         -4.2360    27.1710   -27.3180 ca         1 2EI      -0.096000
     15 C20         -4.4650    25.8980   -27.8790 ca         1 2EI      -0.043000
     16 C21         -3.5970    25.4570   -28.8880 ca         1 2EI      -0.150600
     17 C22         -2.5400    26.2280   -29.3390 ca         1 2EI      -0.089300
     18 C24         -1.7520    25.5250   -30.4380 c5         1 2EI       0.144300
     19 C27         -3.8750    35.6050   -23.8470 ca         1 2EI       0.049000
     20 C30         -6.3030    35.6080   -24.0190 ca         1 2EI       0.333400
     21 C31         -5.0660    35.0070   -24.3030 ca         1 2EI      -0.161500
     22 C25         -3.6070    24.1880   -29.6370 c          1 2EI       0.581600
     23 N3          -2.5280    24.2490   -30.5300 n          1 2EI      -0.420800
     24 C26         -2.2290    23.1390   -31.4500 c3         1 2EI       0.098300
     25 C23         -2.3030    27.4960   -28.7880 ca         1 2EI      -0.079000
     26 C18         -3.1570    27.9720   -27.7670 ca         1 2EI      -0.073300
     27 C17         -2.9190    29.3460   -27.1540 c3         1 2EI       0.207900
     28 O1          -3.6550    30.3190   -27.9140 os         1 2EI      -0.344100
     29 N4          -6.4210    36.7510   -23.3070 nb         1 2EI      -0.666000
     30 C29         -5.2840    37.3210   -22.8500 ca         1 2EI       0.333400
     31 C28         -4.0090    36.7840   -23.0870 ca         1 2EI      -0.161500
     32 N2          -0.8440    33.8050   -25.0330 nc         1 2EI      -0.521800
     33 N1          -0.4020    34.5710   -23.9800 na         1 2EI       0.137800
     34 C4           1.3980    35.2340   -22.2670 c5         1 2EI       0.083000
     35 N            1.6560    36.6200   -22.7320 n          1 2EI      -0.429800
     36 C            0.9570    37.5070   -24.9860 c3         1 2EI      -0.103100
     37 C5           1.9960    37.6670   -21.8470 c          1 2EI       0.602100
     38 O            2.5290    38.6890   -22.2620 o          1 2EI      -0.589100
     39 C6           1.6210    37.5050   -20.3600 c3         1 2EI      -0.154400
     40 H1           2.9760    37.1340   -24.3370 h1         1 2EI       0.067700
     41 H2           3.0310    34.7710   -24.4010 hc         1 2EI       0.073700
     42 H3           1.7800    34.9930   -25.6130 hc         1 2EI       0.073700
     43 H4           1.2600    33.4340   -23.4770 h1         1 2EI       0.094700
     44 H5           1.5940    38.5170   -18.4230 hc         1 2EI       0.043700
     45 H6           2.9630    38.9800   -19.4550 hc         1 2EI       0.043700
     46 H7           1.3330    39.6030   -19.8050 hc         1 2EI       0.043700
     47 H8          -1.2370    36.0160   -22.5710 h4         1 2EI       0.164000
     48 H9          -3.6630    35.4980   -26.8790 ha         1 2EI       0.124000
     49 H10         -4.9710    34.5830   -28.7840 ha         1 2EI       0.118000
     50 H11         -4.9560    32.1350   -29.2460 ha         1 2EI       0.129000
     51 H12         -2.3080    31.5310   -25.8790 ha         1 2EI       0.124000
     52 H14         -5.2920    25.2770   -27.5400 ha         1 2EI       0.138000
     53 H15         -0.7090    25.3500   -30.1430 h1         1 2EI       0.060700
     54 H16         -1.7770    26.0890   -31.3810 h1         1 2EI       0.060700
     55 H17         -7.2310    35.1540   -24.3630 h4         1 2EI       0.017600
     56 H18         -5.0600    34.0670   -24.8420 ha         1 2EI       0.125000
     57 H19         -3.0880    22.9640   -32.1110 h1         1 2EI       0.043367
     58 H20         -1.3510    23.3850   -32.0610 h1         1 2EI       0.043367
     59 H21         -2.0230    22.2270   -30.8760 h1         1 2EI       0.043367
     60 H22         -1.4730    28.1030   -29.1450 ha         1 2EI       0.121000
     61 H23         -1.8450    29.5720   -27.1720 h1         1 2EI       0.045200
     62 H24         -3.2500    29.3410   -26.1070 h1         1 2EI       0.045200
     63 H25         -5.4000    38.2380   -22.2740 h4         1 2EI       0.017600
     64 H26         -3.1410    37.3010   -22.6920 ha         1 2EI       0.125000
     65 H27          0.6020    35.1730   -21.5130 h1         1 2EI       0.058700
     66 H28          2.3100    34.8060   -21.8290 h1         1 2EI       0.058700
     67 H29          0.9640    38.5560   -24.6700 hc         1 2EI       0.050033
     68 H30          1.1980    37.4840   -26.0550 hc         1 2EI       0.050033
     69 H31         -0.0650    37.1360   -24.8690 hc         1 2EI       0.050033
     70 H32          0.5710    37.1960   -20.3070 hc         1 2EI       0.053200
     71 H33          2.1250    36.6100   -19.9780 hc         1 2EI       0.053200
     72 H13         -4.8970    27.5370   -26.5360 ha         1 2EI       0.124000
     73 O2          -4.3950    23.2610   -29.5110 o          1 2EI      -0.541000
@<TRIPOS>BOND
     1     1     2 1   
     2     1    35 1   
     3     1    36 1   
     4     1    40 1   
     5     2     3 1   
     6     2    41 1   
     7     2    42 1   
     8     3    33 1   
     9     3    34 1   
    10     3    43 1   
    11     4    39 1   
    12     4    44 1   
    13     4    45 1   
    14     4    46 1   
    15     5     6 2   
    16     5    33 1   
    17     5    47 1   
    18     6     7 1   
    19     6    19 1   
    20     7     8 1   
    21     7    32 2   
    22     8     9 ar  
    23     8    13 ar  
    24     9    10 ar  
    25     9    48 1   
    26    10    11 ar  
    27    10    49 1   
    28    11    12 ar  
    29    11    50 1   
    30    12    13 ar  
    31    12    28 1   
    32    13    51 1   
    33    14    15 ar  
    34    14    26 ar  
    35    14    72 1   
    36    15    16 ar  
    37    15    52 1   
    38    16    17 ar  
    39    16    22 1   
    40    17    18 1   
    41    17    25 ar  
    42    18    23 1   
    43    18    53 1   
    44    18    54 1   
    45    19    21 ar  
    46    19    31 ar  
    47    20    21 ar  
    48    20    29 ar  
    49    20    55 1   
    50    21    56 1   
    51    22    23 1   
    52    22    73 2   
    53    23    24 1   
    54    24    57 1   
    55    24    58 1   
    56    24    59 1   
    57    25    26 ar  
    58    25    60 1   
    59    26    27 1   
    60    27    28 1   
    61    27    61 1   
    62    27    62 1   
    63    29    30 ar  
    64    30    31 ar  
    65    30    63 1   
    66    31    64 1   
    67    32    33 1   
    68    34    35 1   
    69    34    65 1   
    70    34    66 1   
    71    35    37 1   
    72    36    67 1   
    73    36    68 1   
    74    36    69 1   
    75    37    38 2   
    76    37    39 1   
    77    39    70 1   
    78    39    71 1   
@<TRIPOS>SUBSTRUCTURE
     1 2EI         1 TEMP              0 ****  ****    0 ROOT
