@<TRIPOS>MOLECULE
2EJ
   41    42     1     0     0
SMALL
abcg2


@<TRIPOS>ATOM
      1 O          -44.4600    13.6910    11.9850 o          1 2EJ      -0.629100
      2 C          -43.2870    13.4200    12.2440 c          1 2EJ       0.653100
      3 N2         -42.3450    14.3880    12.5080 ns         1 2EJ      -0.403100
      4 C13        -42.5300    15.7690    12.4240 cc         1 2EJ       0.055600
      5 C16        -41.4450    16.6500    12.7320 cc         1 2EJ      -0.161000
      6 C15        -41.7680    17.9620    12.5660 cd         1 2EJ      -0.230000
      7 S          -43.3930    18.1490    12.0390 ss         1 2EJ       0.182000
      8 C14        -43.6600    16.4450    12.0400 cd         1 2EJ      -0.259000
      9 N          -42.8120    12.1430    12.3170 ns         1 2EJ      -0.511900
     10 C1         -43.5450    11.0060    11.7760 c3         1 2EJ       0.108000
     11 C2         -43.0850    10.6430    10.3620 c3         1 2EJ      -0.110400
     12 C3         -43.4140    11.7300     9.3440 c3         1 2EJ       0.152800
     13 N1         -42.5510    11.6750     8.1670 n7         1 2EJ      -0.876400
     14 C4         -42.7190    12.8350     7.2940 c3         1 2EJ       0.212100
     15 C5         -42.2300    14.1100     7.9480 ca         1 2EJ      -0.091300
     16 C10        -41.0640    14.1170     8.7070 ca         1 2EJ      -0.068000
     17 C9         -40.6180    15.2860     9.3340 ca         1 2EJ       0.008000
     18 C11        -39.4380    15.2610    10.1340 cg         1 2EJ      -0.113000
     19 C12        -38.4410    15.2350    10.8100 c1         1 2EJ      -0.250000
     20 C8         -41.3500    16.4720     9.1850 ca         1 2EJ      -0.077000
     21 C7         -42.5070    16.4700     8.4220 ca         1 2EJ      -0.111000
     22 C6         -42.9480    15.2980     7.8140 ca         1 2EJ      -0.094000
     23 H1         -41.4010    14.0880    12.6960 hn         1 2EJ       0.315500
     24 H2         -40.4700    16.3020    13.0430 ha         1 2EJ       0.132000
     25 H3         -41.1400    18.8240    12.7220 h4         1 2EJ       0.149000
     26 H4         -44.6060    16.0370    11.7420 h4         1 2EJ       0.179000
     27 H5         -41.8150    12.0190    12.4080 hn         1 2EJ       0.298500
     28 H6         -44.6040    11.2620    11.7890 h1         1 2EJ       0.065200
     29 H7         -43.4000    10.1550    12.4440 h1         1 2EJ       0.065200
     30 H8         -43.5390     9.6910    10.0730 hc         1 2EJ       0.049700
     31 H9         -42.0020    10.4890    10.3770 hc         1 2EJ       0.049700
     32 H10        -43.2540    12.7050     9.8030 h1         1 2EJ       0.042700
     33 H11        -44.4820    11.6850     9.0800 h1         1 2EJ       0.042700
     34 H12        -42.7320    10.8300     7.6370 hn         1 2EJ       0.411000
     35 H14        -43.7650    12.9860     6.9870 h1         1 2EJ       0.038700
     36 H15        -42.1450    12.6500     6.3810 h1         1 2EJ       0.038700
     37 H16        -40.5080    13.1980     8.8360 ha         1 2EJ       0.130000
     38 H17        -37.5630    15.2170    11.4120 ha         1 2EJ       0.255000
     39 H18        -41.0210    17.3710     9.6850 ha         1 2EJ       0.121000
     40 H19        -43.0820    17.3810     8.3180 ha         1 2EJ       0.117000
     41 H20        -43.8680    15.3010     7.2420 ha         1 2EJ       0.111000
@<TRIPOS>BOND
     1     1     2 2   
     2     2     3 1   
     3     2     9 1   
     4     3     4 1   
     5     3    23 1   
     6     4     5 1   
     7     4     8 2   
     8     5     6 2   
     9     5    24 1   
    10     6     7 1   
    11     6    25 1   
    12     7     8 1   
    13     8    26 1   
    14     9    10 1   
    15     9    27 1   
    16    10    11 1   
    17    10    28 1   
    18    10    29 1   
    19    11    12 1   
    20    11    30 1   
    21    11    31 1   
    22    12    13 1   
    23    12    32 1   
    24    12    33 1   
    25    13    14 1   
    26    13    34 1   
    27    14    15 1   
    28    14    35 1   
    29    14    36 1   
    30    15    16 ar  
    31    15    22 ar  
    32    16    17 ar  
    33    16    37 1   
    34    17    18 1   
    35    17    20 ar  
    36    18    19 3   
    37    19    38 1   
    38    20    21 ar  
    39    20    39 1   
    40    21    22 ar  
    41    21    40 1   
    42    22    41 1   
@<TRIPOS>SUBSTRUCTURE
     1 2EJ         1 TEMP              0 ****  ****    0 ROOT
