@<TRIPOS>MOLECULE
2EJ
   41    42     1     0     0
SMALL
No Charge or Current Charge


@<TRIPOS>ATOM
      1 O          -44.5040    13.7630    11.8580 o          1 2EJ      -0.629100
      2 C          -43.3760    13.5010    12.2420 c          1 2EJ       0.653100
      3 N2         -42.4280    14.4290    12.6090 ns         1 2EJ      -0.403100
      4 C13        -42.4810    15.8160    12.5580 cc         1 2EJ       0.055600
      5 C16        -41.3820    16.6180    12.9480 cc         1 2EJ      -0.161000
      6 C15        -41.5930    17.9660    12.8170 cd         1 2EJ      -0.230000
      7 S          -43.2130    18.2950    12.1850 ss         1 2EJ       0.182000
      8 C14        -43.5500    16.5560    12.1210 cd         1 2EJ      -0.259000
      9 N          -42.9020    12.2140    12.3300 ns         1 2EJ      -0.511900
     10 C1         -43.5860    11.0350    11.7820 c3         1 2EJ       0.108000
     11 C2         -43.0790    10.6900    10.3630 c3         1 2EJ      -0.110400
     12 C3         -43.4130    11.7670     9.3100 c3         1 2EJ       0.152800
     13 N1         -42.5880    11.5850     8.0980 n7         1 2EJ      -0.876400
     14 C4         -42.5970    12.7150     7.1400 c3         1 2EJ       0.212100
     15 C5         -42.1840    14.0290     7.8080 ca         1 2EJ      -0.091300
     16 C10        -40.9910    14.1060     8.5590 ca         1 2EJ      -0.068000
     17 C9         -40.6440    15.2920     9.2310 ca         1 2EJ       0.008000
     18 C11        -39.4450    15.3500    10.0170 cg         1 2EJ      -0.113000
     19 C12        -38.4360    15.3980    10.6920 c1         1 2EJ      -0.250000
     20 C8         -41.4840    16.4160     9.1440 ca         1 2EJ      -0.077000
     21 C7         -42.6680    16.3520     8.3900 ca         1 2EJ      -0.111000
     22 C6         -43.0180    15.1620     7.7270 ca         1 2EJ      -0.094000
     23 H1         -41.5570    14.0230    12.9200 hn         1 2EJ       0.315500
     24 H2         -40.4530    16.1890    13.3120 ha         1 2EJ       0.132000
     25 H3         -40.9150    18.7800    13.0420 h4         1 2EJ       0.149000
     26 H4         -44.5100    16.2170    11.7570 h4         1 2EJ       0.179000
     27 H5         -41.9590    12.0920    12.6760 hn         1 2EJ       0.298500
     28 H6         -44.6710    11.2040    11.7610 h1         1 2EJ       0.065200
     29 H7         -43.3950    10.1840    12.4490 h1         1 2EJ       0.065200
     30 H8         -43.5110     9.7330    10.0470 hc         1 2EJ       0.049700
     31 H9         -41.9920    10.5480    10.4100 hc         1 2EJ       0.049700
     32 H10        -43.2060    12.7500     9.7480 h1         1 2EJ       0.042700
     33 H11        -44.4860    11.7360     9.0720 h1         1 2EJ       0.042700
     34 H12        -42.8990    10.7360     7.6100 hn         1 2EJ       0.411000
     35 H14        -43.6000    12.8300     6.7050 h1         1 2EJ       0.038700
     36 H15        -41.9070    12.5110     6.3100 h1         1 2EJ       0.038700
     37 H16        -40.3490    13.2310     8.6370 ha         1 2EJ       0.130000
     38 H17        -37.5460    15.4480    11.2870 ha         1 2EJ       0.255000
     39 H18        -41.2250    17.3350     9.6660 ha         1 2EJ       0.121000
     40 H19        -43.3200    17.2200     8.3280 ha         1 2EJ       0.117000
     41 H20        -43.9450    15.1190     7.1600 ha         1 2EJ       0.111000
@<TRIPOS>BOND
     1     1     2 2   
     2     2     3 1   
     3     2     9 1   
     4     3     4 1   
     5     3    23 1   
     6     4     5 1   
     7     4     8 2   
     8     5     6 2   
     9     5    24 1   
    10     6     7 1   
    11     6    25 1   
    12     7     8 1   
    13     8    26 1   
    14     9    10 1   
    15     9    27 1   
    16    10    11 1   
    17    10    28 1   
    18    10    29 1   
    19    11    12 1   
    20    11    30 1   
    21    11    31 1   
    22    12    13 1   
    23    12    32 1   
    24    12    33 1   
    25    13    14 1   
    26    13    34 1   
    27    14    15 1   
    28    14    35 1   
    29    14    36 1   
    30    15    16 ar  
    31    15    22 ar  
    32    16    17 ar  
    33    16    37 1   
    34    17    18 1   
    35    17    20 ar  
    36    18    19 3   
    37    19    38 1   
    38    20    21 ar  
    39    20    39 1   
    40    21    22 ar  
    41    21    40 1   
    42    22    41 1   
@<TRIPOS>SUBSTRUCTURE
     1 2EJ         1 TEMP              0 ****  ****    0 ROOT
