@<TRIPOS>MOLECULE
2EK
   36    37     1     0     0
SMALL
No Charge or Current Charge


@<TRIPOS>ATOM
      1 O           45.0720    13.7620   -11.6670 o          1 2EK      -0.619100
      2 C8          44.0780    13.3890   -12.2690 c          1 2EK       0.647100
      3 N2          43.2280    14.2080   -12.9780 ns         1 2EK      -0.405100
      4 C9          43.2240    15.5920   -13.0870 cc         1 2EK       0.049600
      5 C12         42.2340    16.2770   -13.8330 cc         1 2EK      -0.169000
      6 C11         42.3600    17.6410   -13.8160 cd         1 2EK      -0.227000
      7 S1          43.7550    18.1380   -12.8470 ss         1 2EK       0.195000
      8 C10         44.1190    16.4410   -12.4890 cd         1 2EK      -0.262000
      9 N1          43.6590    12.0800   -12.2710 ns         1 2EK      -0.504900
     10 C7          44.1880    11.0420   -11.3770 c3         1 2EK       0.101000
     11 C6          43.3710    10.9400   -10.0670 c3         1 2EK      -0.111400
     12 C5          43.3750    12.2400    -9.2370 c3         1 2EK       0.147800
     13 N           42.4260    12.1540    -8.1100 n7         1 2EK      -0.848400
     14 C4          42.2250    13.4200    -7.3670 c3         1 2EK       0.220100
     15 C2          41.6550    14.4800    -8.2820 cc         1 2EK      -0.137300
     16 C1          40.2830    14.4700    -8.6640 cc         1 2EK      -0.119000
     17 C3          42.3390    15.5210    -8.8720 cd         1 2EK      -0.007000
     18 Cl1         44.0310    15.8600    -8.6750 cl         1 2EK      -0.134000
     19 S           41.3110    16.5040    -9.9330 ss         1 2EK       0.291000
     20 C           39.9310    15.4720    -9.5290 cd         1 2EK      -0.033000
     21 Cl          38.3460    15.7220   -10.1860 cl         1 2EK      -0.150000
     22 H1          42.4770    13.7160   -13.4410 hn         1 2EK       0.312500
     23 H2          41.4440    15.7530   -14.3630 ha         1 2EK       0.131000
     24 H3          41.7370    18.3830   -14.3010 h4         1 2EK       0.151000
     25 H4          44.9640    16.2050   -11.8570 h4         1 2EK       0.182000
     26 H5          42.8350    11.8580   -12.8150 hn         1 2EK       0.292500
     27 H6          44.1530    10.0770   -11.9010 h1         1 2EK       0.068700
     28 H7          45.2410    11.2540   -11.1420 h1         1 2EK       0.068700
     29 H8          42.3380    10.6720   -10.3200 hc         1 2EK       0.049200
     30 H9          43.7730    10.1220    -9.4570 hc         1 2EK       0.049200
     31 H10         44.3940    12.4460    -8.8790 h1         1 2EK       0.045700
     32 H11         43.0830    13.0670    -9.8950 h1         1 2EK       0.045700
     33 H12         41.5140    11.8840    -8.4910 hn         1 2EK       0.400000
     34 H14         41.5310    13.2670    -6.5290 h1         1 2EK       0.068200
     35 H15         43.1720    13.7740    -6.9360 h1         1 2EK       0.068200
     36 H16         39.5850    13.7210    -8.3020 ha         1 2EK       0.143000
@<TRIPOS>BOND
     1     1     2 2   
     2     2     3 1   
     3     2     9 1   
     4     3     4 1   
     5     3    22 1   
     6     4     5 1   
     7     4     8 2   
     8     5     6 2   
     9     5    23 1   
    10     6     7 1   
    11     6    24 1   
    12     7     8 1   
    13     8    25 1   
    14     9    10 1   
    15     9    26 1   
    16    10    11 1   
    17    10    27 1   
    18    10    28 1   
    19    11    12 1   
    20    11    29 1   
    21    11    30 1   
    22    12    13 1   
    23    12    31 1   
    24    12    32 1   
    25    13    14 1   
    26    13    33 1   
    27    14    15 1   
    28    14    34 1   
    29    14    35 1   
    30    15    16 1   
    31    15    17 2   
    32    16    20 2   
    33    16    36 1   
    34    17    18 1   
    35    17    19 1   
    36    19    20 1   
    37    20    21 1   
@<TRIPOS>SUBSTRUCTURE
     1 2EK         1 TEMP              0 ****  ****    0 ROOT
