@<TRIPOS>MOLECULE
2EK
   36    37     1     0     0
SMALL
abcg2


@<TRIPOS>ATOM
      1 O           45.0110    13.7810   -11.7530 o          1 2EK      -0.619100
      2 C8          43.9770    13.3420   -12.2540 c          1 2EK       0.647100
      3 N2          43.0630    14.1490   -12.8930 ns         1 2EK      -0.405100
      4 C9          43.1100    15.5400   -12.9810 cc         1 2EK       0.049600
      5 C12         41.9850    16.2550   -13.5040 cc         1 2EK      -0.169000
      6 C11         42.1660    17.6040   -13.4900 cd         1 2EK      -0.227000
      7 S1          43.7010    18.0280   -12.8450 ss         1 2EK       0.195000
      8 C10         44.1250    16.3760   -12.5910 cd         1 2EK      -0.262000
      9 N1          43.6440    12.0160   -12.2470 ns         1 2EK      -0.504900
     10 C7          44.2540    11.0830   -11.3080 c3         1 2EK       0.101000
     11 C6          43.4350    10.9250   -10.0230 c3         1 2EK      -0.111400
     12 C5          43.3520    12.2160    -9.2220 c3         1 2EK       0.147800
     13 N           42.3700    12.1230    -8.1400 n7         1 2EK      -0.848400
     14 C4          42.1330    13.4090    -7.4750 c3         1 2EK       0.220100
     15 C2          41.7040    14.5170    -8.4080 cc         1 2EK      -0.137300
     16 C1          40.4370    14.5270    -9.0740 cc         1 2EK      -0.119000
     17 C3          42.4720    15.5720    -8.8100 cd         1 2EK      -0.007000
     18 CL1         44.0890    15.9320    -8.3300 cl         1 2EK      -0.134000
     19 S           41.7000    16.5900    -9.9800 ss         1 2EK       0.291000
     20 C           40.3040    15.5710    -9.9370 cd         1 2EK      -0.033000
     21 CL          38.9410    15.9340   -10.9260 cl         1 2EK      -0.150000
     22 H1          42.2090    13.7250   -13.2220 hn         1 2EK       0.312500
     23 H2          41.0850    15.7690   -13.8540 ha         1 2EK       0.131000
     24 H3          41.4800    18.3680   -13.8180 h4         1 2EK       0.151000
     25 H4          45.0680    16.1110   -12.1510 h4         1 2EK       0.182000
     26 H5          42.7150    11.7710   -12.5590 hn         1 2EK       0.292500
     27 H6          44.3570    10.1170   -11.8030 h1         1 2EK       0.068700
     28 H7          45.2540    11.4510   -11.0840 h1         1 2EK       0.068700
     29 H8          42.4230    10.6020   -10.2920 hc         1 2EK       0.049200
     30 H9          43.8740    10.1280    -9.4160 hc         1 2EK       0.049200
     31 H10         44.3270    12.4480    -8.7820 h1         1 2EK       0.045700
     32 H11         43.1130    13.0420    -9.8990 h1         1 2EK       0.045700
     33 H12         41.4930    11.7860    -8.5250 hn         1 2EK       0.400000
     34 H14         41.3620    13.2590    -6.7170 h1         1 2EK       0.068200
     35 H15         43.0470    13.7060    -6.9590 h1         1 2EK       0.068200
     36 H16         39.6720    13.7810    -8.9150 ha         1 2EK       0.143000
@<TRIPOS>BOND
     1     1     2 2   
     2     2     3 1   
     3     2     9 1   
     4     3     4 1   
     5     3    22 1   
     6     4     5 1   
     7     4     8 2   
     8     5     6 2   
     9     5    23 1   
    10     6     7 1   
    11     6    24 1   
    12     7     8 1   
    13     8    25 1   
    14     9    10 1   
    15     9    26 1   
    16    10    11 1   
    17    10    27 1   
    18    10    28 1   
    19    11    12 1   
    20    11    29 1   
    21    11    30 1   
    22    12    13 1   
    23    12    31 1   
    24    12    32 1   
    25    13    14 1   
    26    13    33 1   
    27    14    15 1   
    28    14    34 1   
    29    14    35 1   
    30    15    16 1   
    31    15    17 2   
    32    16    20 2   
    33    16    36 1   
    34    17    18 1   
    35    17    19 1   
    36    19    20 1   
    37    20    21 1   
@<TRIPOS>SUBSTRUCTURE
     1 2EK         1 TEMP              0 ****  ****    0 ROOT
