@<TRIPOS>MOLECULE
2EL
   50    52     1     0     0
SMALL
bcc


@<TRIPOS>ATOM
      1 OAY         -9.2930    -0.4850    -1.6910 oh         1 2EL      -0.586800
      2 CAX         -9.3860    -0.7050    -0.3030 c3         1 2EL       0.140400
      3 CAW         -8.0690    -1.2240     0.2150 c3         1 2EL       0.138400
      4 OAV         -7.0750    -0.2370     0.0750 os         1 2EL      -0.402600
      5 CAU         -5.8150    -0.6730     0.5150 c3         1 2EL       0.147400
      6 CAI         -4.8170     0.4460     0.2860 c3         1 2EL       0.011700
      7 SAH         -3.1870    -0.0970     0.8710 ss         1 2EL      -0.347200
      8 CAG         -2.1770     1.3060     0.3190 c3         1 2EL       0.027700
      9 CAF         -0.7200     1.0540     0.6640 c5         1 2EL      -0.060700
     10 CAE         -0.1230    -0.1700    -0.0380 c5         1 2EL       0.163800
     11 CAB          0.2000     2.2220     0.2440 c5         1 2EL       0.149100
     12 OAA          0.7690     2.7810     1.4080 oh         1 2EL      -0.579800
     13 CAC          1.2230     1.5610    -0.6800 c5         1 2EL       0.124800
     14 NAD          1.2670     0.1870    -0.2270 n3         1 2EL      -0.690600
     15 CAJ          1.9780    -0.7180    -1.1060 c3         1 2EL       0.254000
     16 CAK          3.4380    -0.4270    -1.1650 cc         1 2EL      -0.260000
     17 CAN          4.1300     0.1490    -2.2000 cd         1 2EL      -0.098100
     18 NAO          5.4490     0.2610    -1.8870 na         1 2EL      -0.154400
     19 C5           5.6420    -0.2500    -0.6340 ca         1 2EL      -0.357800
     20 C6           4.4040    -0.6860    -0.1520 ca         1 2EL       0.474100
     21 N1           4.2610    -1.2610     1.0600 nb         1 2EL      -0.682000
     22 C2           5.3820    -1.3670     1.7330 ca         1 2EL       0.665900
     23 N3           6.6090    -0.9800     1.3710 nb         1 2EL      -0.805000
     24 C4           6.7770    -0.4110     0.1790 ca         1 2EL       0.735200
     25 NAR          8.0080    -0.0230    -0.1840 nv         1 2EL      -0.989500
     26 H1         -10.1510    -0.1840    -2.0040 ho         1 2EL       0.401000
     27 H2          -9.6540     0.2120     0.2390 h1         1 2EL       0.024700
     28 H3         -10.1490    -1.4540    -0.0560 h1         1 2EL       0.024700
     29 H4          -8.2010    -1.5020     1.2700 h1         1 2EL       0.029700
     30 H5          -7.7870    -2.1400    -0.3240 h1         1 2EL       0.029700
     31 H6          -5.8430    -0.9400     1.5810 h1         1 2EL       0.033700
     32 H7          -5.4980    -1.5720    -0.0320 h1         1 2EL       0.033700
     33 H8          -4.7520     0.6850    -0.7770 h1         1 2EL       0.069200
     34 H9          -5.1180     1.3460     0.8250 h1         1 2EL       0.069200
     35 H10         -2.2980     1.4300    -0.7600 h1         1 2EL       0.058700
     36 H11         -2.5340     2.2160     0.8060 h1         1 2EL       0.058700
     37 H12         -0.6280     0.9310     1.7470 hc         1 2EL       0.098700
     38 H13         -0.2160    -1.0880     0.5480 h1         1 2EL       0.044700
     39 H14         -0.6400    -0.3440    -1.0000 h1         1 2EL       0.044700
     40 H15         -0.3610     2.9860    -0.3090 h1         1 2EL       0.027700
     41 H16          1.2850     3.5500     1.1490 ho         1 2EL       0.399000
     42 H17          0.8690     1.6350    -1.7250 h1         1 2EL       0.036200
     43 H18          2.2040     2.0410    -0.6370 h1         1 2EL       0.036200
     44 H20          1.8250    -1.7350    -0.7320 h1         1 2EL       0.038200
     45 H21          1.5600    -0.6960    -2.1270 h1         1 2EL       0.038200
     46 H22          3.7660     0.4950    -3.1540 h4         1 2EL       0.162000
     47 H23          6.1490     0.6360    -2.5030 hn         1 2EL       0.296700
     48 H24          5.3170    -1.8280     2.7140 h5         1 2EL       0.044100
     49 H25          8.7850    -0.1980     0.4290 hn         1 2EL       0.439800
     50 H26          8.2010     0.4040    -1.0710 hn         1 2EL       0.439800
@<TRIPOS>BOND
     1     1     2 1   
     2     1    26 1   
     3     2     3 1   
     4     2    27 1   
     5     2    28 1   
     6     3     4 1   
     7     3    29 1   
     8     3    30 1   
     9     4     5 1   
    10     5     6 1   
    11     5    31 1   
    12     5    32 1   
    13     6     7 1   
    14     6    33 1   
    15     6    34 1   
    16     7     8 1   
    17     8     9 1   
    18     8    35 1   
    19     8    36 1   
    20     9    10 1   
    21     9    11 1   
    22     9    37 1   
    23    10    14 1   
    24    10    38 1   
    25    10    39 1   
    26    11    12 1   
    27    11    13 1   
    28    11    40 1   
    29    12    41 1   
    30    13    14 1   
    31    13    42 1   
    32    13    43 1   
    33    14    15 1   
    34    15    16 1   
    35    15    44 1   
    36    15    45 1   
    37    16    17 2   
    38    16    20 1   
    39    17    18 1   
    40    17    46 1   
    41    18    19 1   
    42    18    47 1   
    43    19    20 ar  
    44    19    24 ar  
    45    20    21 ar  
    46    21    22 ar  
    47    22    23 ar  
    48    22    48 1   
    49    23    24 ar  
    50    24    25 1   
    51    25    49 1   
    52    25    50 1   
@<TRIPOS>SUBSTRUCTURE
     1 2EL         1 TEMP              0 ****  ****    0 ROOT
