@<TRIPOS>MOLECULE
2EL
   50    52     1     0     0
SMALL
No Charge or Current Charge


@<TRIPOS>ATOM
      1 OAY         -9.8310    -0.4300    -0.9060 oh         1 2EL      -0.709000
      2 CAX         -9.5930    -0.6970     0.4910 c3         1 2EL       0.163600
      3 CAW         -8.2070    -1.3580     0.7210 c3         1 2EL       0.161600
      4 OAV         -7.1680    -0.4050     0.4150 os         1 2EL      -0.449000
      5 CAU         -5.8310    -0.9070     0.5860 c3         1 2EL       0.170600
      6 CAI         -4.8490     0.2220     0.2200 c3         1 2EL       0.059600
      7 SAH         -3.0900    -0.3320     0.4130 ss         1 2EL      -0.443000
      8 CAG         -2.2120     1.2170    -0.0930 c3         1 2EL       0.075600
      9 CAF         -0.6770     1.0670    -0.0350 c5         1 2EL      -0.060700
     10 CAE         -0.0800     0.0250    -1.0090 c5         1 2EL       0.163800
     11 CAB          0.1050     2.3450    -0.4620 c5         1 2EL       0.172300
     12 OAA          0.2270     3.2790     0.6160 oh         1 2EL      -0.642000
     13 CAC          1.4840     1.7690    -0.9520 c5         1 2EL       0.124800
     14 NAD          1.3560     0.2930    -0.8020 n3         1 2EL      -0.690600
     15 CAJ          2.2900    -0.5250    -1.5980 c3         1 2EL       0.254000
     16 CAK          3.7300    -0.2370    -1.2660 cc         1 2EL      -0.260000
     17 CAN          4.6200     0.5790    -1.9660 cd         1 2EL      -0.148100
     18 NAO          5.8800     0.5810    -1.3170 na         1 2EL      -0.204700
     19 C5           5.7310    -0.2530    -0.2150 ca         1 2EL      -0.227200
     20 C6           4.4640    -0.7550    -0.1500 ca         1 2EL       0.145800
     21 N1           4.0410    -1.5880     0.8180 nb         1 2EL      -0.156000
     22 C2           4.9820    -1.8960     1.7440 ca         1 2EL       0.139900
     23 N3           6.2680    -1.4550     1.7750 nb         1 2EL      -0.279000
     24 C4           6.6420    -0.6260     0.7830 ca         1 2EL       0.406900
     25 NAR          7.9310    -0.1980     0.8160 nv         1 2EL      -1.099900
     26 H1         -10.6940     0.0410    -0.9630 ho         1 2EL       0.500000
     27 H2          -9.6460     0.2320     1.0740 h1         1 2EL       0.024700
     28 H3         -10.3670    -1.3720     0.8790 h1         1 2EL       0.024700
     29 H4          -8.1360    -1.6740     1.7700 h1         1 2EL       0.029700
     30 H5          -8.1180    -2.2520     0.0900 h1         1 2EL       0.029700
     31 H6          -5.6610    -1.2160     1.6260 h1         1 2EL       0.033700
     32 H7          -5.6530    -1.7710    -0.0670 h1         1 2EL       0.033700
     33 H8          -5.0180     0.5300    -0.8200 h1         1 2EL       0.069200
     34 H9          -5.0270     1.0870     0.8730 h1         1 2EL       0.069200
     35 H10         -2.5150     1.4820    -1.1150 h1         1 2EL       0.058700
     36 H11         -2.5190     2.0310     0.5760 h1         1 2EL       0.058700
     37 H12         -0.4260     0.7950     0.9960 hc         1 2EL       0.098700
     38 H13         -0.3550    -1.0040    -0.7360 h1         1 2EL       0.044700
     39 H14         -0.3900     0.2060    -2.0490 h1         1 2EL       0.044700
     40 H15         -0.4010     2.8260    -1.3110 h1         1 2EL       0.027700
     41 H16          0.7620     4.0320     0.2810 ho         1 2EL       0.438000
     42 H17          1.6520     2.0450    -2.0030 h1         1 2EL       0.036200
     43 H18          2.3300     2.1550    -0.3680 h1         1 2EL       0.036200
     44 H20          2.0980    -1.5920    -1.4170 h1         1 2EL       0.038200
     45 H21          2.1300    -0.3460    -2.6700 h1         1 2EL       0.038200
     46 H22          4.4470     1.1570    -2.8710 h4         1 2EL       0.212000
     47 H23          6.7090     1.1000    -1.5950 hn         1 2EL       0.347000
     48 H24          4.6770    -2.5680     2.5440 h5         1 2EL       0.044100
     49 H25          8.5700    -0.6720     1.4510 hn         1 2EL       0.495000
     50 H26          8.3440     0.1770    -0.0340 hn         1 2EL       0.495000
@<TRIPOS>BOND
     1     1     2 1   
     2     1    26 1   
     3     2     3 1   
     4     2    27 1   
     5     2    28 1   
     6     3     4 1   
     7     3    29 1   
     8     3    30 1   
     9     4     5 1   
    10     5     6 1   
    11     5    31 1   
    12     5    32 1   
    13     6     7 1   
    14     6    33 1   
    15     6    34 1   
    16     7     8 1   
    17     8     9 1   
    18     8    35 1   
    19     8    36 1   
    20     9    10 1   
    21     9    11 1   
    22     9    37 1   
    23    10    14 1   
    24    10    38 1   
    25    10    39 1   
    26    11    12 1   
    27    11    13 1   
    28    11    40 1   
    29    12    41 1   
    30    13    14 1   
    31    13    42 1   
    32    13    43 1   
    33    14    15 1   
    34    15    16 1   
    35    15    44 1   
    36    15    45 1   
    37    16    17 2   
    38    16    20 1   
    39    17    18 1   
    40    17    46 1   
    41    18    19 1   
    42    18    47 1   
    43    19    20 ar  
    44    19    24 ar  
    45    20    21 ar  
    46    21    22 ar  
    47    22    23 ar  
    48    22    48 1   
    49    23    24 ar  
    50    24    25 1   
    51    25    49 1   
    52    25    50 1   
@<TRIPOS>SUBSTRUCTURE
     1 2EL         1 TEMP              0 ****  ****    0 ROOT
