@<TRIPOS>MOLECULE
2EM
   45    47     1     0     0
SMALL
No Charge or Current Charge


@<TRIPOS>ATOM
      1 O          -44.9210    13.2860    11.8820 o          1 2EM      -0.628100
      2 C7         -43.7920    13.2040    12.3390 c          1 2EM       0.647100
      3 N2         -43.0560    14.2620    12.8230 ns         1 2EM      -0.404100
      4 C8         -43.3510    15.6190    12.8140 cc         1 2EM       0.049600
      5 C11        -42.4500    16.5800    13.3340 cc         1 2EM      -0.164000
      6 C10        -42.8840    17.8750    13.2250 cd         1 2EM      -0.226000
      7 S          -44.4710    17.9490    12.4450 ss         1 2EM       0.191000
      8 C9         -44.4890    16.1830    12.2980 cd         1 2EM      -0.267000
      9 N1         -43.0960    12.0190    12.3880 ns         1 2EM      -0.500900
     10 C6         -43.5190    10.7840    11.7140 c3         1 2EM       0.100000
     11 C5         -42.9490    10.6780    10.2790 c3         1 2EM      -0.111400
     12 C4         -43.3560    11.8550     9.3690 c3         1 2EM       0.151800
     13 N          -42.7070    11.7600     8.0490 n7         1 2EM      -0.866400
     14 C3         -42.8970    12.9370     7.1700 c3         1 2EM       0.223000
     15 C2         -42.3530    14.2010     7.8070 cc         1 2EM      -0.083400
     16 C12        -40.9400    14.5300     7.9040 ca         1 2EM      -0.052800
     17 C17        -39.8730    13.7550     7.4130 ca         1 2EM      -0.064000
     18 C16        -38.5520    14.2140     7.5910 ca         1 2EM      -0.119000
     19 C15        -38.3080    15.4340     8.2560 ca         1 2EM      -0.105000
     20 C14        -39.3850    16.1980     8.7470 ca         1 2EM      -0.084000
     21 C13        -40.6910    15.7230     8.5570 ca         1 2EM      -0.161000
     22 S1         -42.1590    16.5380     9.1110 ss         1 2EM       0.026400
     23 C1         -43.1160    15.2000     8.4100 cd         1 2EM      -0.024600
     24 C          -44.6170    15.2380     8.5370 c3         1 2EM      -0.036900
     25 H1         -42.1550    13.9970    13.1940 hn         1 2EM       0.316500
     26 H2         -41.4980    16.3010    13.7760 ha         1 2EM       0.134000
     27 H3         -42.3860    18.7830    13.5420 h4         1 2EM       0.151000
     28 H4         -45.3370    15.7010    11.8320 h4         1 2EM       0.180000
     29 H5         -42.1710    12.0410    12.7980 hn         1 2EM       0.296500
     30 H6         -44.6160    10.7400    11.6800 h1         1 2EM       0.067200
     31 H7         -43.1710     9.9260    12.3060 h1         1 2EM       0.067200
     32 H8         -43.2880     9.7370     9.8310 hc         1 2EM       0.051700
     33 H9         -41.8550    10.6300    10.3370 hc         1 2EM       0.051700
     34 H10        -43.0480    12.7870     9.8590 h1         1 2EM       0.038700
     35 H11        -44.4500    11.8770     9.2650 h1         1 2EM       0.038700
     36 H12        -43.0750    10.9330     7.5650 hn         1 2EM       0.407000
     37 H14        -43.9630    13.0740     6.9410 h1         1 2EM       0.040200
     38 H15        -42.3840    12.7790     6.2110 h1         1 2EM       0.040200
     39 H16        -40.0580    12.8120     6.9060 ha         1 2EM       0.123000
     40 H17        -37.7190    13.6240     7.2160 ha         1 2EM       0.113000
     41 H18        -37.2880    15.7840     8.3930 ha         1 2EM       0.112000
     42 H19        -39.2050    17.1380     9.2640 ha         1 2EM       0.118000
     43 H20        -44.9510    16.1470     9.0520 hc         1 2EM       0.054033
     44 H21        -45.0960    15.2200     7.5520 hc         1 2EM       0.054033
     45 H22        -44.9870    14.3800     9.1090 hc         1 2EM       0.054033
@<TRIPOS>BOND
     1     1     2 2   
     2     2     3 1   
     3     2     9 1   
     4     3     4 1   
     5     3    25 1   
     6     4     5 1   
     7     4     8 2   
     8     5     6 2   
     9     5    26 1   
    10     6     7 1   
    11     6    27 1   
    12     7     8 1   
    13     8    28 1   
    14     9    10 1   
    15     9    29 1   
    16    10    11 1   
    17    10    30 1   
    18    10    31 1   
    19    11    12 1   
    20    11    32 1   
    21    11    33 1   
    22    12    13 1   
    23    12    34 1   
    24    12    35 1   
    25    13    14 1   
    26    13    36 1   
    27    14    15 1   
    28    14    37 1   
    29    14    38 1   
    30    15    16 1   
    31    15    23 2   
    32    16    17 ar  
    33    16    21 ar  
    34    17    18 ar  
    35    17    39 1   
    36    18    19 ar  
    37    18    40 1   
    38    19    20 ar  
    39    19    41 1   
    40    20    21 ar  
    41    20    42 1   
    42    21    22 1   
    43    22    23 1   
    44    23    24 1   
    45    24    43 1   
    46    24    44 1   
    47    24    45 1   
@<TRIPOS>SUBSTRUCTURE
     1 2EM         1 TEMP              0 ****  ****    0 ROOT
