@<TRIPOS>MOLECULE
2EM
   45    47     1     0     0
SMALL
abcg2


@<TRIPOS>ATOM
      1 O          -45.0650    13.0070    12.1800 o          1 2EM      -0.628100
      2 C7         -43.8550    13.0760    12.3940 c          1 2EM       0.647100
      3 N2         -43.2210    14.2610    12.6860 ns         1 2EM      -0.404100
      4 C8         -43.8080    15.5270    12.7110 cc         1 2EM       0.049600
      5 C11        -42.9820    16.6930    12.8140 cc         1 2EM      -0.164000
      6 C10        -43.7000    17.8500    12.7960 cd         1 2EM      -0.226000
      7 S          -45.3850    17.5450    12.6560 ss         1 2EM       0.191000
      8 C9         -45.1420    15.8380    12.6270 cd         1 2EM      -0.267000
      9 N1         -43.0300    11.9850    12.3870 ns         1 2EM      -0.500900
     10 C6         -43.4040    10.7670    11.6760 c3         1 2EM       0.100000
     11 C5         -42.8650    10.7330    10.2420 c3         1 2EM      -0.111400
     12 C4         -43.3290    11.9230     9.4150 c3         1 2EM       0.151800
     13 N          -42.7130    11.9580     8.0920 n7         1 2EM      -0.866400
     14 C3         -42.9630    13.2260     7.3900 c3         1 2EM       0.223000
     15 C2         -42.1900    14.3540     8.0140 cc         1 2EM      -0.083400
     16 C12        -40.7540    14.4660     7.9090 ca         1 2EM      -0.052800
     17 C17        -39.8500    13.6410     7.2240 ca         1 2EM      -0.064000
     18 C16        -38.4970    13.9350     7.2480 ca         1 2EM      -0.119000
     19 C15        -38.0150    15.0490     7.9520 ca         1 2EM      -0.105000
     20 C14        -38.8850    15.8810     8.6370 ca         1 2EM      -0.084000
     21 C13        -40.2470    15.5840     8.6100 ca         1 2EM      -0.161000
     22 S1         -41.5370    16.4620     9.3810 ss         1 2EM       0.026400
     23 C1         -42.7390    15.3490     8.7660 cd         1 2EM      -0.024600
     24 C          -44.1760    15.5770     9.1180 c3         1 2EM      -0.036900
     25 H1         -42.2180    14.2470    12.7770 hn         1 2EM       0.316500
     26 H2         -41.9040    16.6510    12.8830 ha         1 2EM       0.134000
     27 H3         -43.3280    18.8600    12.8520 h4         1 2EM       0.151000
     28 H4         -45.9720    15.1660    12.5210 h4         1 2EM       0.180000
     29 H5         -42.0380    12.1570    12.4600 hn         1 2EM       0.296500
     30 H6         -44.4910    10.7120    11.6800 h1         1 2EM       0.067200
     31 H7         -43.0250     9.9090    12.2340 h1         1 2EM       0.067200
     32 H8         -43.1820     9.7940     9.7760 hc         1 2EM       0.051700
     33 H9         -41.7710    10.7250    10.2650 hc         1 2EM       0.051700
     34 H10        -43.0310    12.8400     9.9240 h1         1 2EM       0.038700
     35 H11        -44.4290    11.9360     9.3600 h1         1 2EM       0.038700
     36 H12        -43.0750    11.1970     7.5270 hn         1 2EM       0.407000
     37 H14        -44.0310    13.4810     7.3700 h1         1 2EM       0.040200
     38 H15        -42.6440    13.0950     6.3540 h1         1 2EM       0.040200
     39 H16        -40.2130    12.7730     6.6890 ha         1 2EM       0.123000
     40 H17        -37.8000    13.2960     6.7190 ha         1 2EM       0.113000
     41 H18        -36.9530    15.2600     7.9610 ha         1 2EM       0.112000
     42 H19        -38.5170    16.7420     9.1810 ha         1 2EM       0.118000
     43 H20        -44.2960    16.4680     9.7320 hc         1 2EM       0.054033
     44 H21        -44.7840    15.7000     8.2200 hc         1 2EM       0.054033
     45 H22        -44.5810    14.7350     9.6810 hc         1 2EM       0.054033
@<TRIPOS>BOND
     1     1     2 2   
     2     2     3 1   
     3     2     9 1   
     4     3     4 1   
     5     3    25 1   
     6     4     5 1   
     7     4     8 2   
     8     5     6 2   
     9     5    26 1   
    10     6     7 1   
    11     6    27 1   
    12     7     8 1   
    13     8    28 1   
    14     9    10 1   
    15     9    29 1   
    16    10    11 1   
    17    10    30 1   
    18    10    31 1   
    19    11    12 1   
    20    11    32 1   
    21    11    33 1   
    22    12    13 1   
    23    12    34 1   
    24    12    35 1   
    25    13    14 1   
    26    13    36 1   
    27    14    15 1   
    28    14    37 1   
    29    14    38 1   
    30    15    16 1   
    31    15    23 2   
    32    16    17 ar  
    33    16    21 ar  
    34    17    18 ar  
    35    17    39 1   
    36    18    19 ar  
    37    18    40 1   
    38    19    20 ar  
    39    19    41 1   
    40    20    21 ar  
    41    20    42 1   
    42    21    22 1   
    43    22    23 1   
    44    23    24 1   
    45    24    43 1   
    46    24    44 1   
    47    24    45 1   
@<TRIPOS>SUBSTRUCTURE
     1 2EM         1 TEMP              0 ****  ****    0 ROOT
