@<TRIPOS>MOLECULE
2EN
   54    55     1     0     0
SMALL
No Charge or Current Charge


@<TRIPOS>ATOM
      1 Cl         -38.0560   -15.2770    -9.4710 cl         1 2EN      -0.217000
      2 C15        -39.7610   -15.2890    -9.0400 ca         1 2EN       0.112000
      3 C16        -40.4250   -16.5100    -8.8640 ca         1 2EN      -0.095000
      4 C17        -41.7890   -16.5340    -8.5160 ca         1 2EN      -0.070300
      5 C18        -42.4780   -17.8850    -8.3160 c3         1 2EN      -0.001900
      6 C19        -42.3190   -18.4730    -6.9210 c2         1 2EN      -0.213200
      7 C20        -41.6130   -17.9530    -5.9020 c2         1 2EN      -0.324000
      8 C3         -42.4820   -15.3100    -8.3570 ca         1 2EN       0.115100
      9 O          -43.8150   -15.3180    -8.0150 os         1 2EN      -0.370100
     10 C2         -44.1780   -15.2890    -6.6290 c3         1 2EN       0.199800
     11 C1         -45.6860   -15.2000    -6.5580 c2         1 2EN      -0.255200
     12 C          -46.4080   -14.0710    -6.6660 c2         1 2EN      -0.285000
     13 C14        -40.4470   -14.0780    -8.8770 ca         1 2EN      -0.096000
     14 C4         -41.8220   -14.0720    -8.5480 ca         1 2EN      -0.097300
     15 C5         -42.6020   -12.7610    -8.3920 c3         1 2EN       0.194100
     16 N          -41.9760   -11.6350    -9.1220 n7         1 2EN      -0.859400
     17 C6         -42.7870   -10.4120    -9.2650 c3         1 2EN       0.158800
     18 C7         -43.8510   -10.5740   -10.3780 c3         1 2EN      -0.146400
     19 C8         -43.2990   -10.6970   -11.8230 c3         1 2EN       0.127000
     20 N1         -42.4470   -11.8720   -12.0520 ns         1 2EN      -0.535900
     21 C9         -42.8880   -13.1740   -12.0340 c          1 2EN       0.658100
     22 O1         -44.0610   -13.4730   -11.8890 o          1 2EN      -0.631100
     23 N2         -41.8530   -14.0680   -12.1910 ns         1 2EN      -0.403100
     24 C10        -41.8730   -15.4560   -12.1700 cc         1 2EN       0.054600
     25 C13        -40.6930   -16.2200   -12.3420 cc         1 2EN      -0.162000
     26 C12        -40.8860   -17.5750   -12.2880 cd         1 2EN      -0.231000
     27 S          -42.5920   -17.9610   -12.0210 ss         1 2EN       0.188000
     28 C11        -42.9850   -16.2340   -11.9770 cd         1 2EN      -0.250000
     29 H1         -39.8780   -17.4410    -8.9920 ha         1 2EN       0.132000
     30 H2         -43.5450   -17.8030    -8.5570 hc         1 2EN       0.066200
     31 H3         -42.0810   -18.6020    -9.0450 hc         1 2EN       0.066200
     32 H4         -42.8550   -19.4150    -6.7840 ha         1 2EN       0.168000
     33 H5         -41.5610   -18.4550    -4.9350 ha         1 2EN       0.164500
     34 H6         -41.0620   -17.0160    -5.9900 ha         1 2EN       0.164500
     35 H7         -43.8310   -16.1960    -6.1180 h1         1 2EN       0.041200
     36 H8         -43.7270   -14.4220    -6.1270 h1         1 2EN       0.041200
     37 H9         -46.1790   -16.1620    -6.4060 ha         1 2EN       0.171000
     38 H10        -47.4980   -14.0790    -6.6070 ha         1 2EN       0.177500
     39 H11        -45.9350   -13.1000    -6.8230 ha         1 2EN       0.177500
     40 H12        -39.9020   -13.1470    -9.0100 ha         1 2EN       0.141000
     41 H13        -42.6870   -12.5220    -7.3220 h1         1 2EN       0.058200
     42 H14        -43.6210   -12.9290    -8.7640 h1         1 2EN       0.058200
     43 H15        -41.7890   -11.9600   -10.0740 hn         1 2EN       0.397000
     44 H17        -42.1420    -9.5630    -9.5300 h1         1 2EN       0.052200
     45 H18        -43.2800   -10.1600    -8.3150 h1         1 2EN       0.052200
     46 H19        -44.4980    -9.6880   -10.3480 hc         1 2EN       0.061700
     47 H20        -44.5070   -11.4230   -10.1570 hc         1 2EN       0.061700
     48 H21        -42.7160    -9.7970   -12.0620 h1         1 2EN       0.053700
     49 H22        -44.1410   -10.7380   -12.5260 h1         1 2EN       0.053700
     50 H23        -41.4690   -11.7130   -12.2580 hn         1 2EN       0.306500
     51 H24        -40.9510   -13.6340   -12.3240 hn         1 2EN       0.312500
     52 H25        -39.7230   -15.7570   -12.4980 ha         1 2EN       0.131000
     53 H26        -40.1530   -18.3660   -12.3870 h4         1 2EN       0.148000
     54 H27        -44.0090   -15.9290   -11.8090 h4         1 2EN       0.179000
@<TRIPOS>BOND
     1     1     2 1   
     2     2     3 ar  
     3     2    13 ar  
     4     3     4 ar  
     5     3    29 1   
     6     4     5 1   
     7     4     8 ar  
     8     5     6 1   
     9     5    30 1   
    10     5    31 1   
    11     6     7 2   
    12     6    32 1   
    13     7    33 1   
    14     7    34 1   
    15     8     9 1   
    16     8    14 ar  
    17     9    10 1   
    18    10    11 1   
    19    10    35 1   
    20    10    36 1   
    21    11    12 2   
    22    11    37 1   
    23    12    38 1   
    24    12    39 1   
    25    13    14 ar  
    26    13    40 1   
    27    14    15 1   
    28    15    16 1   
    29    15    41 1   
    30    15    42 1   
    31    16    17 1   
    32    16    43 1   
    33    17    18 1   
    34    17    44 1   
    35    17    45 1   
    36    18    19 1   
    37    18    46 1   
    38    18    47 1   
    39    19    20 1   
    40    19    48 1   
    41    19    49 1   
    42    20    21 1   
    43    20    50 1   
    44    21    22 2   
    45    21    23 1   
    46    23    24 1   
    47    23    51 1   
    48    24    25 1   
    49    24    28 2   
    50    25    26 2   
    51    25    52 1   
    52    26    27 1   
    53    26    53 1   
    54    27    28 1   
    55    28    54 1   
@<TRIPOS>SUBSTRUCTURE
     1 2EN         1 TEMP              0 ****  ****    0 ROOT
