@<TRIPOS>MOLECULE
2EN
   54    55     1     0     0
SMALL
abcg2


@<TRIPOS>ATOM
      1 CL         -37.5410   -14.7550    -8.7890 cl         1 2EN      -0.217000
      2 C15        -39.2810   -14.9550    -8.6410 ca         1 2EN       0.112000
      3 C16        -39.8130   -16.2320    -8.6140 ca         1 2EN      -0.095000
      4 C17        -41.1930   -16.4010    -8.5020 ca         1 2EN      -0.070300
      5 C18        -41.7860   -17.7810    -8.4640 c3         1 2EN      -0.001900
      6 C19        -41.9180   -18.3820    -7.0890 c2         1 2EN      -0.213200
      7 C20        -41.5630   -17.8190    -5.9400 c2         1 2EN      -0.324000
      8 C3         -42.0010   -15.2670    -8.4220 ca         1 2EN       0.115100
      9 O          -43.3670   -15.4180    -8.3940 os         1 2EN      -0.370100
     10 C2         -44.0090   -15.3040    -7.1200 c3         1 2EN       0.199800
     11 C1         -45.4100   -14.8150    -7.2820 c2         1 2EN      -0.255200
     12 C          -45.9670   -14.4230    -8.4210 c2         1 2EN      -0.285000
     13 C14        -40.0840   -13.8260    -8.5690 ca         1 2EN      -0.096000
     14 C4         -41.4630   -13.9720    -8.4670 ca         1 2EN      -0.097300
     15 C5         -42.4000   -12.7910    -8.4580 c3         1 2EN       0.194100
     16 N          -41.7610   -11.5440    -8.8510 n7         1 2EN      -0.859400
     17 C6         -42.6960   -10.4260    -9.0110 c3         1 2EN       0.158800
     18 C7         -43.8680   -10.6050    -9.9880 c3         1 2EN      -0.146400
     19 C8         -43.4900   -10.7810   -11.4610 c3         1 2EN       0.127000
     20 N1         -42.7510   -12.0000   -11.7680 ns         1 2EN      -0.535900
     21 C9         -43.3250   -13.2310   -11.7520 c          1 2EN       0.658100
     22 O1         -44.5420   -13.4030   -11.6510 o          1 2EN      -0.631100
     23 N2         -42.4290   -14.2700   -11.8620 ns         1 2EN      -0.403100
     24 C10        -42.7270   -15.6320   -11.9030 cc         1 2EN       0.054600
     25 C13        -41.6650   -16.5900   -11.9700 cc         1 2EN      -0.162000
     26 C12        -42.1140   -17.8740   -12.0010 cd         1 2EN      -0.231000
     27 S          -43.8300   -17.9440   -11.9440 ss         1 2EN       0.188000
     28 C11        -43.9640   -16.2240   -11.8850 cd         1 2EN      -0.250000
     29 H1         -39.1680   -17.0970    -8.6840 ha         1 2EN       0.132000
     30 H2         -42.7710   -17.7710    -8.9360 hc         1 2EN       0.066200
     31 H3         -41.1720   -18.4510    -9.0740 hc         1 2EN       0.066200
     32 H4         -42.3510   -19.3790    -7.0780 ha         1 2EN       0.168000
     33 H5         -41.7020   -18.3370    -4.9990 ha         1 2EN       0.164500
     34 H6         -41.1300   -16.8270    -5.8970 ha         1 2EN       0.164500
     35 H7         -44.0020   -16.2820    -6.6270 h1         1 2EN       0.041200
     36 H8         -43.4460   -14.6220    -6.4740 h1         1 2EN       0.041200
     37 H9         -45.9800   -14.7990    -6.3570 ha         1 2EN       0.171000
     38 H10        -46.9950   -14.0810    -8.4450 ha         1 2EN       0.177500
     39 H11        -45.4200   -14.4250    -9.3540 ha         1 2EN       0.177500
     40 H12        -39.6430   -12.8410    -8.6020 ha         1 2EN       0.141000
     41 H13        -42.8140   -12.6520    -7.4530 h1         1 2EN       0.058200
     42 H14        -43.2530   -13.0570    -9.0900 h1         1 2EN       0.058200
     43 H15        -41.2580   -11.6860    -9.7190 hn         1 2EN       0.397000
     44 H17        -42.1070    -9.5570    -9.3160 h1         1 2EN       0.052200
     45 H18        -43.1090   -10.1970    -8.0230 h1         1 2EN       0.052200
     46 H19        -44.4880    -9.7060    -9.9190 hc         1 2EN       0.061700
     47 H20        -44.5050   -11.4360    -9.6780 hc         1 2EN       0.061700
     48 H21        -42.8630    -9.9500   -11.7860 h1         1 2EN       0.053700
     49 H22        -44.3970   -10.7610   -12.0680 h1         1 2EN       0.053700
     50 H23        -41.7550   -11.9270   -11.8930 hn         1 2EN       0.306500
     51 H24        -41.4470   -14.0410   -11.8570 hn         1 2EN       0.312500
     52 H25        -40.6190   -16.3140   -11.9780 ha         1 2EN       0.131000
     53 H26        -41.5300   -18.7790   -12.0400 h4         1 2EN       0.148000
     54 H27        -44.9240   -15.7490   -11.8230 h4         1 2EN       0.179000
@<TRIPOS>BOND
     1     1     2 1   
     2     2     3 ar  
     3     2    13 ar  
     4     3     4 ar  
     5     3    29 1   
     6     4     5 1   
     7     4     8 ar  
     8     5     6 1   
     9     5    30 1   
    10     5    31 1   
    11     6     7 2   
    12     6    32 1   
    13     7    33 1   
    14     7    34 1   
    15     8     9 1   
    16     8    14 ar  
    17     9    10 1   
    18    10    11 1   
    19    10    35 1   
    20    10    36 1   
    21    11    12 2   
    22    11    37 1   
    23    12    38 1   
    24    12    39 1   
    25    13    14 ar  
    26    13    40 1   
    27    14    15 1   
    28    15    16 1   
    29    15    41 1   
    30    15    42 1   
    31    16    17 1   
    32    16    43 1   
    33    17    18 1   
    34    17    44 1   
    35    17    45 1   
    36    18    19 1   
    37    18    46 1   
    38    18    47 1   
    39    19    20 1   
    40    19    48 1   
    41    19    49 1   
    42    20    21 1   
    43    20    50 1   
    44    21    22 2   
    45    21    23 1   
    46    23    24 1   
    47    23    51 1   
    48    24    25 1   
    49    24    28 2   
    50    25    26 2   
    51    25    52 1   
    52    26    27 1   
    53    26    53 1   
    54    27    28 1   
    55    28    54 1   
@<TRIPOS>SUBSTRUCTURE
     1 2EN         1 TEMP              0 ****  ****    0 ROOT
