@<TRIPOS>MOLECULE
2EO
   50    54     1     0     0
SMALL
No Charge or Current Charge


@<TRIPOS>ATOM
      1 O1           0.8650    -0.3010     2.5640 o          1 2EO      -0.566100
      2 C1           0.9490    -0.8430     1.4670 c          1 2EO       0.625100
      3 C5           2.2650    -1.4450     0.9800 c3         1 2EO      -0.185700
      4 C6           3.2260    -0.4410     0.3940 cc         1 2EO       0.370900
      5 N11          2.7230     0.7640     0.0950 nd         1 2EO      -0.421300
      6 N10          3.6300     1.6920    -0.4300 n          1 2EO      -0.134800
      7 C17          3.0290     3.0110    -0.7250 c3         1 2EO       0.101300
      8 C7           4.6410    -0.8090     0.1410 ca         1 2EO      -0.115900
      9 C8           5.5330     0.1490    -0.3860 ca         1 2EO      -0.142600
     10 C15          6.8830    -0.1810    -0.6290 ca         1 2EO      -0.048000
     11 C14          7.3530    -1.4740    -0.3560 ca         1 2EO      -0.114000
     12 C13          6.4750    -2.4400     0.1540 ca         1 2EO      -0.081000
     13 C12          5.1310    -2.1140     0.3980 ca         1 2EO      -0.105000
     14 C9           5.0100     1.5150    -0.6940 c          1 2EO       0.549600
     15 O16          5.7220     2.4070    -1.1450 o          1 2EO      -0.539000
     16 N1          -0.1060    -0.9720     0.5720 ns         1 2EO      -0.144000
     17 C18         -1.4630    -0.5470     0.6200 ca         1 2EO      -0.001000
     18 C19         -2.2940    -0.9190    -0.4630 ca         1 2EO      -0.168000
     19 C20         -3.6340    -0.5170    -0.4530 ca         1 2EO       0.087100
     20 C21         -4.1400     0.2240     0.5810 ca         1 2EO      -0.121800
     21 C22         -3.3630     0.6200     1.6720 ca         1 2EO      -0.041000
     22 C23         -2.0070     0.2260     1.6850 ca         1 2EO      -0.142000
     23 O24         -4.5710    -0.7960    -1.4270 os         1 2EO      -0.173200
     24 C25         -5.7330    -0.1870    -0.9550 cc         1 2EO       0.022900
     25 C26         -5.5130     0.4440     0.2530 cd         1 2EO      -0.126400
     26 C27         -7.0340    -0.2170    -1.7150 c6         1 2EO      -0.009200
     27 C28         -8.1990     0.2230    -0.7860 c6         1 2EO      -0.073400
     28 C29         -7.8170     1.4670     0.0640 c6         1 2EO      -0.077400
     29 C30         -6.6080     1.1780     0.9960 c6         1 2EO      -0.003200
     30 H1           2.7380    -1.9210     1.8450 hc         1 2EO       0.077200
     31 H2           2.0590    -2.1910     0.2040 hc         1 2EO       0.077200
     32 H3           3.1540     3.2440    -1.7900 h1         1 2EO       0.058033
     33 H4           1.9580     3.0130    -0.4860 h1         1 2EO       0.058033
     34 H5           3.5270     3.7850    -0.1270 h1         1 2EO       0.058033
     35 H6           7.5690     0.5620    -1.0340 ha         1 2EO       0.142000
     36 H7           8.3940    -1.7270    -0.5450 ha         1 2EO       0.123000
     37 H8           6.8360    -3.4460     0.3590 ha         1 2EO       0.119000
     38 H9           4.4810    -2.8940     0.7850 ha         1 2EO       0.119000
     39 H10          0.1370    -1.4530    -0.2840 hn         1 2EO       0.151000
     40 H11         -1.9080    -1.5070    -1.2920 ha         1 2EO       0.126000
     41 H12         -3.7860     1.2110     2.4810 ha         1 2EO       0.121000
     42 H13         -1.3980     0.5350     2.5270 ha         1 2EO       0.145000
     43 H14         -6.9760     0.4610    -2.5760 hc         1 2EO       0.060700
     44 H15         -7.2330    -1.2180    -2.1190 hc         1 2EO       0.060700
     45 H16         -9.0930     0.4350    -1.3870 hc         1 2EO       0.045700
     46 H17         -8.4650    -0.6060    -0.1150 hc         1 2EO       0.045700
     47 H18         -7.5730     2.3030    -0.6060 hc         1 2EO       0.044700
     48 H19         -8.6780     1.7910     0.6650 hc         1 2EO       0.044700
     49 H20         -6.9410     0.5730     1.8490 hc         1 2EO       0.050700
     50 H21         -6.2280     2.1200     1.4150 hc         1 2EO       0.050700
@<TRIPOS>BOND
     1     1     2 2   
     2     2     3 1   
     3     2    16 1   
     4     3     4 1   
     5     3    30 1   
     6     3    31 1   
     7     4     5 2   
     8     4     8 1   
     9     5     6 1   
    10     6     7 1   
    11     6    14 1   
    12     7    32 1   
    13     7    33 1   
    14     7    34 1   
    15     8     9 ar  
    16     8    13 ar  
    17     9    10 ar  
    18     9    14 1   
    19    10    11 ar  
    20    10    35 1   
    21    11    12 ar  
    22    11    36 1   
    23    12    13 ar  
    24    12    37 1   
    25    13    38 1   
    26    14    15 2   
    27    16    17 1   
    28    16    39 1   
    29    17    18 ar  
    30    17    22 ar  
    31    18    19 ar  
    32    18    40 1   
    33    19    20 ar  
    34    19    23 1   
    35    20    21 ar  
    36    20    25 1   
    37    21    22 ar  
    38    21    41 1   
    39    22    42 1   
    40    23    24 1   
    41    24    25 2   
    42    24    26 1   
    43    25    29 1   
    44    26    27 1   
    45    26    43 1   
    46    26    44 1   
    47    27    28 1   
    48    27    45 1   
    49    27    46 1   
    50    28    29 1   
    51    28    47 1   
    52    28    48 1   
    53    29    49 1   
    54    29    50 1   
@<TRIPOS>SUBSTRUCTURE
     1 2EO         1 TEMP              0 ****  ****    0 ROOT
