@<TRIPOS>MOLECULE
2EO
   50    54     1     0     0
SMALL
abcg2


@<TRIPOS>ATOM
      1 O1           0.7380    -0.6620     2.6340 o          1 2EO      -0.566100
      2 C1           0.9080    -1.1010     1.5130 c          1 2EO       0.625100
      3 C5           2.2470    -1.6580     1.0650 c3         1 2EO      -0.185700
      4 C6           3.1290    -0.5740     0.5070 cc         1 2EO       0.370900
      5 N11          2.6120     0.5940     0.3890 nd         1 2EO      -0.421300
      6 N10          3.3320     1.6070    -0.1050 n          1 2EO      -0.134800
      7 C17          2.6370     2.8800    -0.2020 c3         1 2EO       0.101300
      8 C7           4.4900    -0.8540     0.1210 ca         1 2EO      -0.115900
      9 C8           5.2420     0.2090    -0.3930 ca         1 2EO      -0.142600
     10 C15          6.5660     0.0110    -0.7860 ca         1 2EO      -0.048000
     11 C14          7.1360    -1.2390    -0.6680 ca         1 2EO      -0.114000
     12 C13          6.3890    -2.3050    -0.1580 ca         1 2EO      -0.081000
     13 C12          5.0800    -2.1190     0.2340 ca         1 2EO      -0.105000
     14 C9           4.6320     1.5310    -0.5230 c          1 2EO       0.549600
     15 O16          5.2090     2.5140    -0.9690 o          1 2EO      -0.539000
     16 N1          -0.0430    -1.1410     0.5500 ns         1 2EO      -0.144000
     17 C18         -1.3550    -0.6480     0.5930 ca         1 2EO      -0.001000
     18 C19         -2.2560    -1.1920    -0.3220 ca         1 2EO      -0.168000
     19 C20         -3.5360    -0.6790    -0.3260 ca         1 2EO       0.087100
     20 C21         -3.9670     0.3360     0.5320 ca         1 2EO      -0.121800
     21 C22         -3.0540     0.8640     1.4400 ca         1 2EO      -0.041000
     22 C23         -1.7580     0.3760     1.4670 ca         1 2EO      -0.142000
     23 O24         -4.5440    -1.0670    -1.1390 os         1 2EO      -0.173200
     24 C25         -5.6240    -0.2990    -0.8070 cc         1 2EO       0.022900
     25 C26         -5.3450     0.5690     0.1880 cd         1 2EO      -0.126400
     26 C27         -6.9120    -0.4640    -1.5190 c6         1 2EO      -0.009200
     27 C28         -7.9950     0.2890    -0.7390 c6         1 2EO      -0.073400
     28 C29         -7.5140     1.6600    -0.2630 c6         1 2EO      -0.077400
     29 C30         -6.3420     1.5440     0.7160 c6         1 2EO      -0.003200
     30 H1           2.7300    -2.1200     1.9290 hc         1 2EO       0.077200
     31 H2           2.1230    -2.4470     0.3180 hc         1 2EO       0.077200
     32 H3           2.5780     3.2130    -1.2370 h1         1 2EO       0.058033
     33 H4           1.6340     2.7370     0.1850 h1         1 2EO       0.058033
     34 H5           3.1440     3.6450     0.3840 h1         1 2EO       0.058033
     35 H6           7.1380     0.8400    -1.1810 ha         1 2EO       0.142000
     36 H7           8.1620    -1.3980    -0.9710 ha         1 2EO       0.123000
     37 H8           6.8400    -3.2840    -0.0710 ha         1 2EO       0.119000
     38 H9           4.5180    -2.9550     0.6270 ha         1 2EO       0.119000
     39 H10          0.2120    -1.6010    -0.3090 hn         1 2EO       0.151000
     40 H11         -1.9590    -1.9810    -1.0020 ha         1 2EO       0.126000
     41 H12         -3.3390     1.6570     2.1190 ha         1 2EO       0.121000
     42 H13         -1.0560     0.8030     2.1630 ha         1 2EO       0.145000
     43 H14         -6.8310    -0.0740    -2.5400 hc         1 2EO       0.060700
     44 H15         -7.1730    -1.5210    -1.6130 hc         1 2EO       0.060700
     45 H16         -8.8820     0.3980    -1.3660 hc         1 2EO       0.045700
     46 H17         -8.2960    -0.3070     0.1270 hc         1 2EO       0.045700
     47 H18         -7.2020     2.2530    -1.1280 hc         1 2EO       0.044700
     48 H19         -8.3360     2.2000     0.2080 hc         1 2EO       0.044700
     49 H20         -6.7000     1.2240     1.7000 hc         1 2EO       0.050700
     50 H21         -5.8780     2.5220     0.8670 hc         1 2EO       0.050700
@<TRIPOS>BOND
     1     1     2 2   
     2     2     3 1   
     3     2    16 1   
     4     3     4 1   
     5     3    30 1   
     6     3    31 1   
     7     4     5 2   
     8     4     8 1   
     9     5     6 1   
    10     6     7 1   
    11     6    14 1   
    12     7    32 1   
    13     7    33 1   
    14     7    34 1   
    15     8     9 ar  
    16     8    13 ar  
    17     9    10 ar  
    18     9    14 1   
    19    10    11 ar  
    20    10    35 1   
    21    11    12 ar  
    22    11    36 1   
    23    12    13 ar  
    24    12    37 1   
    25    13    38 1   
    26    14    15 2   
    27    16    17 1   
    28    16    39 1   
    29    17    18 ar  
    30    17    22 ar  
    31    18    19 ar  
    32    18    40 1   
    33    19    20 ar  
    34    19    23 1   
    35    20    21 ar  
    36    20    25 1   
    37    21    22 ar  
    38    21    41 1   
    39    22    42 1   
    40    23    24 1   
    41    24    25 2   
    42    24    26 1   
    43    25    29 1   
    44    26    27 1   
    45    26    43 1   
    46    26    44 1   
    47    27    28 1   
    48    27    45 1   
    49    27    46 1   
    50    28    29 1   
    51    28    47 1   
    52    28    48 1   
    53    29    49 1   
    54    29    50 1   
@<TRIPOS>SUBSTRUCTURE
     1 2EO         1 TEMP              0 ****  ****    0 ROOT
