@<TRIPOS>MOLECULE
2EP
   23    23     1     0     0
SMALL
No Charge or Current Charge


@<TRIPOS>ATOM
      1 N1           1.0370     0.2880     0.1160 n7         1 2EP      -0.863400
      2 C2          -0.2880    -0.2280     0.5350 c6         1 2EP       0.174500
      3 C3          -1.3840     0.1890    -0.4840 c6         1 2EP      -0.072400
      4 C4          -1.0190    -0.2710    -1.9170 c6         1 2EP      -0.073400
      5 C5           0.3930     0.2340    -2.3010 c6         1 2EP      -0.076400
      6 C6           1.4380    -0.1750    -1.2340 c6         1 2EP       0.162800
      7 C1          -0.6180     0.2680     1.9730 c3         1 2EP      -0.076400
      8 C7           0.3490    -0.2250     3.0720 c3         1 2EP      -0.091100
      9 HN1          1.7380    -0.0300     0.7950 hn         1 2EP       0.409000
     10 H2          -0.2410    -1.3270     0.5630 h1         1 2EP       0.013700
     11 H31         -2.3520    -0.2420    -0.1930 hc         1 2EP       0.044700
     12 H32         -1.5110     1.2810    -0.4700 hc         1 2EP       0.044700
     13 H41         -1.0470    -1.3690    -1.9710 hc         1 2EP       0.037200
     14 H42         -1.7620     0.1000    -2.6350 hc         1 2EP       0.037200
     15 H51          0.6840    -0.1700    -3.2810 hc         1 2EP       0.045200
     16 H52          0.3810     1.3270    -2.4030 hc         1 2EP       0.045200
     17 H61          1.5440    -1.2700    -1.2260 h1         1 2EP       0.026200
     18 H62          2.4170     0.2530    -1.4920 h1         1 2EP       0.026200
     19 H1'1        -1.6280    -0.0640     2.2430 hc         1 2EP       0.045700
     20 H1'2        -0.6440     1.3640     1.9940 hc         1 2EP       0.045700
     21 H2'1         0.0090     0.1160     4.0580 hc         1 2EP       0.031367
     22 H2'2         0.3920    -1.3210     3.0860 hc         1 2EP       0.031367
     23 H2'3         1.3620     0.1610     2.9110 hc         1 2EP       0.031367
@<TRIPOS>BOND
     1     1     2 1   
     2     1     6 1   
     3     1     9 1   
     4     2     3 1   
     5     2     7 1   
     6     2    10 1   
     7     3     4 1   
     8     3    11 1   
     9     3    12 1   
    10     4     5 1   
    11     4    13 1   
    12     4    14 1   
    13     5     6 1   
    14     5    15 1   
    15     5    16 1   
    16     6    17 1   
    17     6    18 1   
    18     7     8 1   
    19     7    19 1   
    20     7    20 1   
    21     8    21 1   
    22     8    22 1   
    23     8    23 1   
@<TRIPOS>SUBSTRUCTURE
     1 2EP         1 TEMP              0 ****  ****    0 ROOT
