@<TRIPOS>MOLECULE
2EP
   23    23     1     0     0
SMALL
bcc


@<TRIPOS>ATOM
      1 N1           1.0020     0.3030     0.0980 n7         1 2EP      -0.808200
      2 C2          -0.2810    -0.2300     0.5330 c6         1 2EP       0.174500
      3 C3          -1.3550     0.1860    -0.4670 c6         1 2EP      -0.072400
      4 C4          -1.0010    -0.2570    -1.8830 c6         1 2EP      -0.073400
      5 C5           0.3920     0.2300    -2.2640 c6         1 2EP      -0.076400
      6 C6           1.4020    -0.1930    -1.2090 c6         1 2EP       0.162800
      7 C1          -0.6190     0.2570     1.9380 c3         1 2EP      -0.076400
      8 C7           0.3460    -0.2180     3.0180 c3         1 2EP      -0.091100
      9 HN1          1.7160     0.0530     0.7700 hn         1 2EP       0.353800
     10 H2          -0.2640    -1.3370     0.5560 h1         1 2EP       0.013700
     11 H31         -2.3150    -0.2400    -0.1630 hc         1 2EP       0.044700
     12 H32         -1.4650     1.2750    -0.4350 hc         1 2EP       0.044700
     13 H41         -1.0240    -1.3510    -1.9330 hc         1 2EP       0.037200
     14 H42         -1.7460     0.1050    -2.5950 hc         1 2EP       0.037200
     15 H51          0.6880    -0.1680    -3.2370 hc         1 2EP       0.045200
     16 H52          0.3950     1.3210    -2.3490 hc         1 2EP       0.045200
     17 H61          1.4940    -1.2920    -1.2300 h1         1 2EP       0.026200
     18 H62          2.3890     0.2100    -1.4470 h1         1 2EP       0.026200
     19 H1'1        -1.6260    -0.0910     2.1840 hc         1 2EP       0.045700
     20 H1'2        -0.6620     1.3510     1.9330 hc         1 2EP       0.045700
     21 H2'1         0.0100     0.0970     4.0060 hc         1 2EP       0.031367
     22 H2'2         0.4220    -1.3070     3.0280 hc         1 2EP       0.031367
     23 H2'3         1.3520     0.1840     2.8850 hc         1 2EP       0.031367
@<TRIPOS>BOND
     1     1     2 1   
     2     1     6 1   
     3     1     9 1   
     4     2     3 1   
     5     2     7 1   
     6     2    10 1   
     7     3     4 1   
     8     3    11 1   
     9     3    12 1   
    10     4     5 1   
    11     4    13 1   
    12     4    14 1   
    13     5     6 1   
    14     5    15 1   
    15     5    16 1   
    16     6    17 1   
    17     6    18 1   
    18     7     8 1   
    19     7    19 1   
    20     7    20 1   
    21     8    21 1   
    22     8    22 1   
    23     8    23 1   
@<TRIPOS>SUBSTRUCTURE
     1 2EP         1 TEMP              0 ****  ****    0 ROOT
