@<TRIPOS>MOLECULE
2EQ
   56    59     1     0     0
SMALL
No Charge or Current Charge


@<TRIPOS>ATOM
      1 C20         36.8890     4.8010    23.6290 c6         1 2EQ       0.141300
      2 C21         37.1230     3.2690    23.4030 c6         1 2EQ       0.154100
      3 O4          36.8870     2.8900    22.0250 os         1 2EQ      -0.438000
      4 C22         35.5630     3.2530    21.5620 c6         1 2EQ       0.154100
      5 C23         35.2880     4.7840    21.7410 c6         1 2EQ       0.141300
      6 N4          36.4230     5.5100    22.3950 n3         1 2EQ      -0.732600
      7 C19         36.2020     6.9700    22.5680 c3         1 2EQ       0.229100
      8 C16         35.0690     7.3330    23.5300 ca         1 2EQ      -0.115300
      9 C17         35.3290     7.5250    24.9000 ca         1 2EQ      -0.102500
     10 C18         34.2900     7.8680    25.7820 ca         1 2EQ      -0.084500
     11 C15         33.7570     7.5080    23.0530 ca         1 2EQ      -0.102500
     12 C14         32.7190     7.8510    23.9350 ca         1 2EQ      -0.084500
     13 C13         32.9710     8.0310    25.3120 ca         1 2EQ      -0.009000
     14 C9          31.8740     8.4100    26.2160 cc         1 2EQ      -0.115000
     15 C8          31.5920     8.0850    27.5760 cc         1 2EQ       0.234500
     16 C10         32.2900     7.0030    28.3600 c          1 2EQ       0.522600
     17 O3          33.1290     6.2250    27.9220 o          1 2EQ      -0.573100
     18 N3          31.8710     6.9210    29.6790 ns         1 2EQ      -0.492900
     19 C11         32.3940     5.9810    30.6730 c3         1 2EQ       0.104000
     20 C12         33.7630     6.4210    31.2210 c3         1 2EQ      -0.117100
     21 N2          30.5810     8.7960    28.0720 nd         1 2EQ      -0.353300
     22 O5          30.1760     9.6420    26.9920 os         1 2EQ      -0.085700
     23 C7          30.9740     9.3960    25.9060 cd         1 2EQ       0.247500
     24 C5          30.9400    10.4290    24.8380 ca         1 2EQ      -0.288500
     25 C6          32.1360    10.8480    24.2050 ca         1 2EQ       0.017000
     26 C4          32.1170    11.8230    23.1950 ca         1 2EQ      -0.032000
     27 Cl1         33.6330    12.3070    22.4340 cl         1 2EQ      -0.194000
     28 C3          30.9000    12.4070    22.8070 ca         1 2EQ       0.218100
     29 O2          30.8610    13.3550    21.8260 oh         1 2EQ      -0.516100
     30 C2          29.7140    12.0210    23.4370 ca         1 2EQ      -0.204000
     31 C1          29.7280    11.0510    24.4480 ca         1 2EQ       0.235100
     32 O1          28.5360    10.7030    25.0060 oh         1 2EQ      -0.523100
     33 H201        36.1500     4.9130    24.4350 h1         1 2EQ       0.040450
     34 H202        37.8230     5.2520    23.9930 h1         1 2EQ       0.040450
     35 H211        38.1560     3.0080    23.6710 h1         1 2EQ       0.044700
     36 H212        36.4500     2.6920    24.0540 h1         1 2EQ       0.044700
     37 H221        35.4690     2.9790    20.5020 h1         1 2EQ       0.044700
     38 H222        34.8150     2.6750    22.1250 h1         1 2EQ       0.044700
     39 H231        35.0770     5.2230    20.7540 h1         1 2EQ       0.040450
     40 H232        34.3700     4.8940    22.3370 h1         1 2EQ       0.040450
     41 H191        37.1270     7.4410    22.9290 h1         1 2EQ       0.058700
     42 H192        35.9900     7.4290    21.5920 h1         1 2EQ       0.058700
     43 H17         36.3400     7.4140    25.2830 ha         1 2EQ       0.113500
     44 H15         33.5380     7.3750    21.9950 ha         1 2EQ       0.113500
     45 H18         34.5250     8.0410    26.8280 ha         1 2EQ       0.116500
     46 H14         31.7110     7.9700    23.5460 ha         1 2EQ       0.116500
     47 H3          31.1590     7.5860    29.9650 hn         1 2EQ       0.330500
     48 H111        31.6760     5.9110    31.5010 h1         1 2EQ       0.057200
     49 H112        32.4810     4.9840    30.2180 h1         1 2EQ       0.057200
     50 H121        34.5080     6.4690    30.4180 hc         1 2EQ       0.043367
     51 H122        33.6920     7.4100    31.6900 hc         1 2EQ       0.043367
     52 H123        34.1170     5.7080    31.9750 hc         1 2EQ       0.043367
     53 H6          33.1000    10.4510    24.5090 ha         1 2EQ       0.142000
     54 H2          31.7810    13.4920    21.5130 ho         1 2EQ       0.486000
     55 HA          28.7740    12.4760    23.1400 ha         1 2EQ       0.154000
     56 H1          28.7190    10.1060    25.7610 ho         1 2EQ       0.491000
@<TRIPOS>BOND
     1     1     2 1   
     2     1     6 1   
     3     1    33 1   
     4     1    34 1   
     5     2     3 1   
     6     2    35 1   
     7     2    36 1   
     8     3     4 1   
     9     4     5 1   
    10     4    37 1   
    11     4    38 1   
    12     5     6 1   
    13     5    39 1   
    14     5    40 1   
    15     6     7 1   
    16     7     8 1   
    17     7    41 1   
    18     7    42 1   
    19     8     9 ar  
    20     8    11 ar  
    21     9    10 ar  
    22     9    43 1   
    23    10    13 ar  
    24    10    45 1   
    25    11    12 ar  
    26    11    44 1   
    27    12    13 ar  
    28    12    46 1   
    29    13    14 1   
    30    14    15 1   
    31    14    23 2   
    32    15    16 1   
    33    15    21 2   
    34    16    17 2   
    35    16    18 1   
    36    18    19 1   
    37    18    47 1   
    38    19    20 1   
    39    19    48 1   
    40    19    49 1   
    41    20    50 1   
    42    20    51 1   
    43    20    52 1   
    44    21    22 1   
    45    22    23 1   
    46    23    24 1   
    47    24    25 ar  
    48    24    31 ar  
    49    25    26 ar  
    50    25    53 1   
    51    26    27 1   
    52    26    28 ar  
    53    28    29 1   
    54    28    30 ar  
    55    29    54 1   
    56    30    31 ar  
    57    30    55 1   
    58    31    32 1   
    59    32    56 1   
@<TRIPOS>SUBSTRUCTURE
     1 2EQ         1 TEMP              0 ****  ****    0 ROOT
