@<TRIPOS>MOLECULE
2EQ
   56    59     1     0     0
SMALL
bcc


@<TRIPOS>ATOM
      1 C20         36.8360     4.8180    23.8060 c6         1 2EQ       0.141300
      2 C21         37.4650     3.4570    23.4870 c6         1 2EQ       0.130900
      3 O4          36.8130     2.8070    22.4120 os         1 2EQ      -0.391600
      4 C22         35.4440     3.1210    22.3700 c6         1 2EQ       0.130900
      5 C23         35.2320     4.6020    22.0400 c6         1 2EQ       0.141300
      6 N4          36.3360     5.3800    22.5720 n3         1 2EQ      -0.732600
      7 C19         36.1220     6.8140    22.5620 c3         1 2EQ       0.229100
      8 C16         35.0370     7.3160    23.4880 ca         1 2EQ      -0.115300
      9 C17         35.3160     7.6020    24.8230 ca         1 2EQ      -0.120500
     10 C18         34.3180     8.0140    25.6910 ca         1 2EQ      -0.102500
     11 C15         33.7260     7.4660    23.0450 ca         1 2EQ      -0.120500
     12 C14         32.7210     7.8750    23.9090 ca         1 2EQ      -0.102500
     13 C13         33.0070     8.1510    25.2430 ca         1 2EQ      -0.009000
     14 C9          31.9480     8.6170    26.1450 cc         1 2EQ      -0.245600
     15 C8          31.5390     8.0890    27.4000 cc         1 2EQ       0.299800
     16 C10         32.0780     6.8810    28.0960 c          1 2EQ       0.589600
     17 O3          32.5890     5.9820    27.4500 o          1 2EQ      -0.573100
     18 N3          31.9350     6.8870    29.4240 ns         1 2EQ      -0.559900
     19 C11         32.4100     5.8160    30.2770 c3         1 2EQ       0.104000
     20 C12         33.8710     5.9780    30.6680 c3         1 2EQ      -0.117100
     21 N2          30.5380     8.7510    27.9010 nd         1 2EQ      -0.353300
     22 O5          30.2670     9.7420    27.0220 os         1 2EQ      -0.130100
     23 C7          31.1020     9.6730    25.9720 cd         1 2EQ       0.357200
     24 C5          30.9710    10.6810    24.9330 ca         1 2EQ      -0.288500
     25 C6          32.1300    11.1550    24.3160 ca         1 2EQ      -0.001000
     26 C4          32.0720    12.0810    23.3010 ca         1 2EQ      -0.123600
     27 CL1         33.5270    12.6550    22.5550 cl         1 2EQ      -0.102400
     28 C3          30.8380    12.5810    22.8660 ca         1 2EQ       0.218100
     29 O2          30.7170    13.4810    21.8900 oh         1 2EQ      -0.477100
     30 C2          29.6820    12.1250    23.4810 ca         1 2EQ      -0.222000
     31 C1          29.7300    11.1870    24.5060 ca         1 2EQ       0.235100
     32 O1          28.5470    10.8060    25.0050 oh         1 2EQ      -0.484100
     33 H201        36.0640     4.7230    24.5840 h1         1 2EQ       0.040450
     34 H202        37.6080     5.4710    24.2200 h1         1 2EQ       0.040450
     35 H211        38.5060     3.5880    23.1850 h1         1 2EQ       0.044700
     36 H212        37.4550     2.8290    24.3870 h1         1 2EQ       0.044700
     37 H221        34.9820     2.4960    21.6050 h1         1 2EQ       0.044700
     38 H222        34.9580     2.8700    23.3220 h1         1 2EQ       0.044700
     39 H231        35.1860     4.7580    20.9570 h1         1 2EQ       0.040450
     40 H232        34.2540     4.8990    22.4470 h1         1 2EQ       0.040450
     41 H191        37.0690     7.2950    22.8220 h1         1 2EQ       0.058700
     42 H192        35.8870     7.1080    21.5350 h1         1 2EQ       0.058700
     43 H17         36.3320     7.5150    25.1900 ha         1 2EQ       0.131500
     44 H15         33.4850     7.2650    22.0080 ha         1 2EQ       0.131500
     45 H18         34.5650     8.2500    26.7180 ha         1 2EQ       0.134500
     46 H14         31.7070     7.9810    23.5420 ha         1 2EQ       0.134500
     47 H3          31.5540     7.7090    29.8670 hn         1 2EQ       0.330500
     48 H111        31.7790     5.8080    31.1640 h1         1 2EQ       0.057200
     49 H112        32.2560     4.8660    29.7670 h1         1 2EQ       0.057200
     50 H121        34.5180     5.9560    29.7910 hc         1 2EQ       0.043367
     51 H122        34.0350     6.9210    31.1910 hc         1 2EQ       0.043367
     52 H123        34.1740     5.1690    31.3320 hc         1 2EQ       0.043367
     53 H6          33.0940    10.7960    24.6480 ha         1 2EQ       0.160000
     54 H2          31.5780    13.7290    21.5290 ho         1 2EQ       0.447000
     55 HA          28.7230    12.5060    23.1540 ha         1 2EQ       0.172000
     56 H1          28.6320    10.2160    25.7610 ho         1 2EQ       0.452000
@<TRIPOS>BOND
     1     1     2 1   
     2     1     6 1   
     3     1    33 1   
     4     1    34 1   
     5     2     3 1   
     6     2    35 1   
     7     2    36 1   
     8     3     4 1   
     9     4     5 1   
    10     4    37 1   
    11     4    38 1   
    12     5     6 1   
    13     5    39 1   
    14     5    40 1   
    15     6     7 1   
    16     7     8 1   
    17     7    41 1   
    18     7    42 1   
    19     8     9 ar  
    20     8    11 ar  
    21     9    10 ar  
    22     9    43 1   
    23    10    13 ar  
    24    10    45 1   
    25    11    12 ar  
    26    11    44 1   
    27    12    13 ar  
    28    12    46 1   
    29    13    14 1   
    30    14    15 1   
    31    14    23 2   
    32    15    16 1   
    33    15    21 2   
    34    16    17 2   
    35    16    18 1   
    36    18    19 1   
    37    18    47 1   
    38    19    20 1   
    39    19    48 1   
    40    19    49 1   
    41    20    50 1   
    42    20    51 1   
    43    20    52 1   
    44    21    22 1   
    45    22    23 1   
    46    23    24 1   
    47    24    25 ar  
    48    24    31 ar  
    49    25    26 ar  
    50    25    53 1   
    51    26    27 1   
    52    26    28 ar  
    53    28    29 1   
    54    28    30 ar  
    55    29    54 1   
    56    30    31 ar  
    57    30    55 1   
    58    31    32 1   
    59    32    56 1   
@<TRIPOS>SUBSTRUCTURE
     1 2EQ         1 TEMP              0 ****  ****    0 ROOT
