@<TRIPOS>MOLECULE
2ET
   43    44     1     0     0
SMALL
abcg2


@<TRIPOS>ATOM
      1 C10          0.5110    -0.2930    -1.2600 c3         1 2ET       0.222100
      2 C15         -2.8740     2.2060    -0.2850 ca         1 2ET      -0.030000
      3 C17         -1.8010     0.0680    -0.2860 ca         1 2ET       0.210100
      4 C21         -3.9360    -1.0980     1.0230 cc         1 2ET      -0.351200
      5 C22         -4.0140     0.2210     0.7350 cd         1 2ET       0.047600
      6 C02          2.9630    -2.1410    -0.9490 c          1 2ET       0.689000
      7 O03          2.1100    -2.9470    -0.5270 o          1 2ET      -0.730000
      8 C04          2.8030    -0.6580    -0.5380 c3         1 2ET       0.030500
      9 C05          3.7760    -0.3640     0.6090 c3         1 2ET      -0.048400
     10 C06          3.7160     1.0580     1.1700 c3         1 2ET      -0.058700
     11 C07          4.7730     1.2310     2.2570 c3         1 2ET      -0.080100
     12 C08          3.8710     2.1150     0.0840 c3         1 2ET      -0.080100
     13 N09          1.4620    -0.2550    -0.1620 n7         1 2ET      -0.862400
     14 C11         -0.6850     0.5680    -0.9470 ca         1 2ET      -0.105300
     15 C12         -0.6890     1.9310    -1.2500 ca         1 2ET       0.190100
     16 O13          0.3880     2.4330    -1.8690 oh         1 2ET      -0.501100
     17 C14         -1.7830     2.7430    -0.9270 ca         1 2ET      -0.246000
     18 C16         -2.9100     0.8510     0.0540 ca         1 2ET      -0.203800
     19 O18         -1.7740    -1.2490     0.0290 os         1 2ET      -0.309200
     20 C19         -2.7850    -1.8890     0.6720 c          1 2ET       0.672300
     21 O20         -2.6350    -3.0670     0.8950 o          1 2ET      -0.483000
     22 H1           1.0050     0.1060    -2.1470 h1         1 2ET       0.057200
     23 H2           0.1910    -1.3060    -1.5230 h1         1 2ET       0.057200
     24 H3          -3.7080     2.8500    -0.0380 ha         1 2ET       0.103000
     25 H4          -4.7410    -1.6110     1.5320 ha         1 2ET       0.199000
     26 H6           3.0950    -0.0410    -1.3950 h1         1 2ET       0.040700
     27 H7           3.5880    -1.0720     1.4250 hc         1 2ET       0.040200
     28 H8           4.7930    -0.5710     0.2580 hc         1 2ET       0.040200
     29 H9           2.7310     1.1960     1.6250 hc         1 2ET       0.048700
     30 H10          4.7120     2.2180     2.7210 hc         1 2ET       0.020033
     31 H11          4.6590     0.4870     3.0480 hc         1 2ET       0.020033
     32 H12          5.7800     1.1240     1.8460 hc         1 2ET       0.020033
     33 H13          3.0310     2.0900    -0.6110 hc         1 2ET       0.020033
     34 H14          3.9110     3.1170     0.5160 hc         1 2ET       0.020033
     35 H15          4.7910     1.9680    -0.4890 hc         1 2ET       0.020033
     36 H16          1.1340    -0.8790     0.5680 hn         1 2ET       0.416000
     37 H18          0.2640     3.3700    -2.0600 ho         1 2ET       0.455000
     38 H19         -1.7690     3.7960    -1.1810 ha         1 2ET       0.107000
     39 H20         -5.9510     0.4130     1.6260 hc         1 2ET       0.045700
     40 H21         -4.9460     1.8570     1.7530 hc         1 2ET       0.045700
     41 H22         -5.6910     1.4450     0.2180 hc         1 2ET       0.045700
     42 C23         -5.2170     1.0220     1.1050 c3         1 2ET      -0.060900
     43 O01          3.9640    -2.4140    -1.6440 o          1 2ET      -0.730000
@<TRIPOS>BOND
     1     1    13 1   
     2     1    14 1   
     3     1    22 1   
     4     1    23 1   
     5     2    17 ar  
     6     2    18 ar  
     7     2    24 1   
     8     3    14 ar  
     9     3    18 ar  
    10     3    19 1   
    11     4     5 2   
    12     4    20 1   
    13     4    25 1   
    14     5    18 1   
    15     5    42 1   
    16     6     7 1   
    17     6     8 1   
    18     6    43 1   
    19     8     9 1   
    20     8    13 1   
    21     8    26 1   
    22     9    10 1   
    23     9    27 1   
    24     9    28 1   
    25    10    11 1   
    26    10    12 1   
    27    10    29 1   
    28    11    30 1   
    29    11    31 1   
    30    11    32 1   
    31    12    33 1   
    32    12    34 1   
    33    12    35 1   
    34    13    36 1   
    35    14    15 ar  
    36    15    16 1   
    37    15    17 ar  
    38    16    37 1   
    39    17    38 1   
    40    19    20 1   
    41    20    21 2   
    42    39    42 1   
    43    40    42 1   
    44    41    42 1   
@<TRIPOS>SUBSTRUCTURE
     1 2ET         1 TEMP              0 ****  ****    0 ROOT
