@<TRIPOS>MOLECULE
2ET
   43    44     1     0     0
SMALL
No Charge or Current Charge


@<TRIPOS>ATOM
      1 C10          0.5180     0.1460    -1.4140 c3         1 2ET       0.222100
      2 C15         -3.2150     2.1530    -0.4170 ca         1 2ET      -0.030000
      3 C17         -1.7840     0.1890    -0.3270 ca         1 2ET       0.210100
      4 C21         -3.7150    -1.2040     1.1340 cc         1 2ET      -0.351200
      5 C22         -4.0120     0.0870     0.7720 cd         1 2ET       0.047600
      6 C02          2.6620    -2.1120    -0.8880 c          1 2ET       0.689000
      7 O03          2.1710    -2.9110    -0.0990 o          1 2ET      -0.730000
      8 C04          2.7410    -0.5870    -0.4750 c3         1 2ET       0.030500
      9 C05          3.6500    -0.4090     0.7750 c3         1 2ET      -0.048400
     10 C06          4.0110     1.0570     1.1560 c3         1 2ET      -0.058700
     11 C07          4.7900     1.1030     2.4910 c3         1 2ET      -0.080100
     12 C08          4.7950     1.7950     0.0430 c3         1 2ET      -0.080100
     13 N09          1.4050     0.0610    -0.2350 n7         1 2ET      -0.862400
     14 C11         -0.7870     0.8620    -1.0650 ca         1 2ET      -0.105300
     15 C12         -1.0240     2.1910    -1.4780 ca         1 2ET       0.190100
     16 O13         -0.0990     2.8840    -2.2040 oh         1 2ET      -0.501100
     17 C14         -2.2300     2.8270    -1.1530 ca         1 2ET      -0.246000
     18 C16         -3.0000     0.8240     0.0020 ca         1 2ET      -0.203800
     19 O18         -1.5600    -1.1080     0.0720 os         1 2ET      -0.309200
     20 C19         -2.4490    -1.8590     0.7870 c          1 2ET       0.672300
     21 O20         -2.2000    -3.0090     1.1170 o          1 2ET      -0.483000
     22 H1           1.0260     0.6670    -2.2370 h1         1 2ET       0.057200
     23 H2           0.2770    -0.8590    -1.7880 h1         1 2ET       0.057200
     24 H3          -4.1400     2.6730    -0.1810 ha         1 2ET       0.103000
     25 H4          -4.4040    -1.8170     1.7020 ha         1 2ET       0.199000
     26 H6           3.2360    -0.0800    -1.3140 h1         1 2ET       0.040700
     27 H7           3.1620    -0.8900     1.6320 hc         1 2ET       0.040200
     28 H8           4.5820    -0.9630     0.6050 hc         1 2ET       0.040200
     29 H9           3.0760     1.6070     1.3170 hc         1 2ET       0.048700
     30 H10          4.9950     2.1390     2.7860 hc         1 2ET       0.020033
     31 H11          4.2100     0.6330     3.2950 hc         1 2ET       0.020033
     32 H12          5.7470     0.5740     2.4040 hc         1 2ET       0.020033
     33 H13          4.1910     1.8970    -0.8660 hc         1 2ET       0.020033
     34 H14          5.0700     2.8050     0.3690 hc         1 2ET       0.020033
     35 H15          5.7150     1.2550    -0.2120 hc         1 2ET       0.020033
     36 H16          0.9110    -0.4930     0.4750 hn         1 2ET       0.416000
     37 H18         -0.4540     3.7820    -2.3700 ho         1 2ET       0.455000
     38 H19         -2.4150     3.8500    -1.4710 ha         1 2ET       0.107000
     39 H20         -5.9580     0.0050     1.7320 hc         1 2ET       0.045700
     40 H21         -5.1850     1.5930     1.7840 hc         1 2ET       0.045700
     41 H22         -5.9050     1.0010     0.2740 hc         1 2ET       0.045700
     42 C23         -5.3350     0.7030     1.1610 c3         1 2ET      -0.060900
     43 O01          3.0440    -2.4320    -2.0060 o          1 2ET      -0.730000
@<TRIPOS>BOND
     1     1    13 1   
     2     1    14 1   
     3     1    22 1   
     4     1    23 1   
     5     2    17 ar  
     6     2    18 ar  
     7     2    24 1   
     8     3    14 ar  
     9     3    18 ar  
    10     3    19 1   
    11     4     5 2   
    12     4    20 1   
    13     4    25 1   
    14     5    18 1   
    15     5    42 1   
    16     6     7 1   
    17     6     8 1   
    18     6    43 1   
    19     8     9 1   
    20     8    13 1   
    21     8    26 1   
    22     9    10 1   
    23     9    27 1   
    24     9    28 1   
    25    10    11 1   
    26    10    12 1   
    27    10    29 1   
    28    11    30 1   
    29    11    31 1   
    30    11    32 1   
    31    12    33 1   
    32    12    34 1   
    33    12    35 1   
    34    13    36 1   
    35    14    15 ar  
    36    15    16 1   
    37    15    17 ar  
    38    16    37 1   
    39    17    38 1   
    40    19    20 1   
    41    20    21 2   
    42    39    42 1   
    43    40    42 1   
    44    41    42 1   
@<TRIPOS>SUBSTRUCTURE
     1 2ET         1 TEMP              0 ****  ****    0 ROOT
