@<TRIPOS>MOLECULE
2EU
   46    48     1     0     0
SMALL
No Charge or Current Charge


@<TRIPOS>ATOM
      1 N1          -3.7970    -1.2570    -0.3850 n3         1 2EU      -0.712500
      2 C4           4.9960     2.1490     0.2020 c3         1 2EU       0.302500
      3 C5          -3.0830    -0.4710    -1.4350 c6         1 2EU       0.181800
      4 C6          -3.2100    -0.9570     0.9530 c6         1 2EU       0.181800
      5 C7           3.2360     0.2990     0.4020 ca         1 2EU      -0.197300
      6 C8           0.4530    -0.2540     0.0660 ca         1 2EU       0.333000
      7 C10         -1.5430    -0.7280    -1.4310 c6         1 2EU       0.202800
      8 C13         -6.0530     2.7760    -0.3010 cc         1 2EU      -0.157000
      9 C15          2.2780     0.7400     1.3480 ca         1 2EU      -0.039000
     10 C17          0.9120     0.4620     1.1810 ca         1 2EU      -0.171000
     11 C9          -5.7730     1.5410    -0.9330 cc         1 2EU       0.009000
     12 C12         -6.2690     2.6670     1.0490 cd         1 2EU      -0.213000
     13 S2          -6.1470     0.9820     1.5890 ss         1 2EU       0.333000
     14 C2          -5.7580     0.4840    -0.0600 cd         1 2EU      -0.486500
     15 S1          -5.4990    -1.2160    -0.4660 sy         1 2EU       1.195600
     16 O1          -5.8570    -1.4590    -1.8680 o          1 2EU      -0.531500
     17 O2          -5.9930    -2.0820     0.6090 o          1 2EU      -0.531500
     18 C11         -1.6740    -1.2270     1.0080 c6         1 2EU       0.202800
     19 N2          -0.9290    -0.5190    -0.0810 nh         1 2EU      -0.796400
     20 C16          1.3910    -0.6820    -0.8890 ca         1 2EU      -0.171000
     21 C14          2.7600    -0.4090    -0.7290 ca         1 2EU      -0.039000
     22 C3           5.7440    -0.3310    -0.1440 c3         1 2EU       0.302500
     23 F2           5.7590    -0.1320    -1.4840 f          1 2EU      -0.099000
     24 F3           7.0180    -0.1720     0.2900 f          1 2EU      -0.099000
     25 F1           5.4180    -1.6280     0.0740 f          1 2EU      -0.099000
     26 F5           4.2660     3.0010     0.9610 f          1 2EU      -0.099000
     27 F6           6.2950     2.5050     0.3470 f          1 2EU      -0.099000
     28 F4           4.6530     2.3770    -1.0890 f          1 2EU      -0.099000
     29 O3           5.0000     0.4960     2.0300 oh         1 2EU      -0.623000
     30 H1          -3.4620    -0.7180    -2.4370 h1         1 2EU       0.065450
     31 H2          -3.2470     0.6050    -1.2850 h1         1 2EU       0.065450
     32 H3          -3.3760     0.0970     1.2180 h1         1 2EU       0.065450
     33 H4          -3.6880    -1.5640     1.7350 h1         1 2EU       0.065450
     34 H5          -1.3610    -1.7590    -1.7680 h1         1 2EU       0.054200
     35 H6          -1.0820    -0.0550    -2.1690 h1         1 2EU       0.054200
     36 H7          -6.0920     3.7120    -0.8520 ha         1 2EU       0.142000
     37 H8           2.5850     1.3120     2.2220 ha         1 2EU       0.126000
     38 H9           0.2020     0.8230     1.9190 ha         1 2EU       0.121000
     39 H10         -5.5910     1.4630    -2.0030 ha         1 2EU       0.149000
     40 H11         -6.5020     3.4500     1.7610 h4         1 2EU       0.154000
     41 H12         -1.3060    -0.9230     1.9980 h1         1 2EU       0.054200
     42 H13         -1.5070    -2.3110     0.9230 h1         1 2EU       0.054200
     43 H14          1.0670    -1.2400    -1.7610 ha         1 2EU       0.121000
     44 H15          3.4320    -0.7600    -1.5060 ha         1 2EU       0.126000
     45 H16          4.6370    -0.3770     2.2980 ho         1 2EU       0.478000
     46 C1           4.7420     0.6430     0.6110 c3         1 2EU       0.119300
@<TRIPOS>BOND
     1     1     3 1   
     2     1     4 1   
     3     1    15 1   
     4     2    26 1   
     5     2    27 1   
     6     2    28 1   
     7     2    46 1   
     8     3     7 1   
     9     3    30 1   
    10     3    31 1   
    11     4    18 1   
    12     4    32 1   
    13     4    33 1   
    14     5     9 ar  
    15     5    21 ar  
    16     5    46 1   
    17     6    10 ar  
    18     6    19 1   
    19     6    20 ar  
    20     7    19 1   
    21     7    34 1   
    22     7    35 1   
    23     8    11 1   
    24     8    12 2   
    25     8    36 1   
    26     9    10 ar  
    27     9    37 1   
    28    10    38 1   
    29    11    14 2   
    30    11    39 1   
    31    12    13 1   
    32    12    40 1   
    33    13    14 1   
    34    14    15 1   
    35    15    16 2   
    36    15    17 2   
    37    18    19 1   
    38    18    41 1   
    39    18    42 1   
    40    20    21 ar  
    41    20    43 1   
    42    21    44 1   
    43    22    23 1   
    44    22    24 1   
    45    22    25 1   
    46    22    46 1   
    47    29    45 1   
    48    29    46 1   
@<TRIPOS>SUBSTRUCTURE
     1 2EU         1 TEMP              0 ****  ****    0 ROOT
