@<TRIPOS>MOLECULE
2EU
   46    48     1     0     0
SMALL
bcc


@<TRIPOS>ATOM
      1 N1          -3.6070    -1.0250    -0.2810 n3         1 2EU      -0.712500
      2 C4           5.0680     1.9630     0.1740 c3         1 2EU       0.666400
      3 C5          -2.9260    -0.2850    -1.3390 c6         1 2EU       0.181800
      4 C6          -3.0650    -0.7050     1.0380 c6         1 2EU       0.181800
      5 C7           3.2870     0.2340     0.3860 ca         1 2EU      -0.197300
      6 C8           0.4890    -0.1710     0.1150 ca         1 2EU       0.194600
      7 C10         -1.4430    -0.6080    -1.3110 c6         1 2EU       0.202800
      8 C13         -6.5910     2.6060    -0.5070 cc         1 2EU      -0.175000
      9 C15          2.4170     0.4230     1.4600 ca         1 2EU      -0.057000
     10 C17          1.0580     0.2240     1.3340 ca         1 2EU      -0.189000
     11 C9          -6.1070     1.4080    -1.0840 cc         1 2EU      -0.009000
     12 C12         -6.7420     2.5120     0.8450 cd         1 2EU      -0.086100
     13 S2          -6.3060     0.9730     1.4420 ss         1 2EU       0.043200
     14 C2          -5.9100     0.4390    -0.1420 cd         1 2EU      -0.341600
     15 S1          -5.2500    -1.1570    -0.4010 sy         1 2EU       1.337200
     16 O1          -5.5480    -1.5390    -1.7680 o          1 2EU      -0.602300
     17 O2          -5.6890    -1.9800     0.7120 o          1 2EU      -0.602300
     18 C11         -1.5880    -1.0390     1.0530 c6         1 2EU       0.202800
     19 N2          -0.8830    -0.3340    -0.0050 nh         1 2EU      -0.658000
     20 C16          1.3640    -0.3520    -0.9620 ca         1 2EU      -0.189000
     21 C14          2.7270    -0.1420    -0.8300 ca         1 2EU      -0.057000
     22 C3           5.6710    -0.5010    -0.1760 c3         1 2EU       0.666400
     23 F2           5.6380    -0.3550    -1.5030 f          1 2EU      -0.220300
     24 F3           6.9440    -0.3950     0.1940 f          1 2EU      -0.220300
     25 F1           5.2800    -1.7460     0.1050 f          1 2EU      -0.220300
     26 F5           4.3520     2.8000     0.9220 f          1 2EU      -0.220300
     27 F6           6.3510     2.2900     0.3300 f          1 2EU      -0.220300
     28 F4           4.7470     2.1850    -1.1000 f          1 2EU      -0.220300
     29 O3           5.1520     0.4490     1.9290 oh         1 2EU      -0.560800
     30 H1          -3.3180    -0.5740    -2.3120 h1         1 2EU       0.065450
     31 H2          -3.0680     0.7960    -1.2150 h1         1 2EU       0.065450
     32 H3          -3.2070     0.3560     1.2740 h1         1 2EU       0.065450
     33 H4          -3.5610    -1.3000     1.8020 h1         1 2EU       0.065450
     34 H5          -1.2880    -1.6520    -1.6160 h1         1 2EU       0.054200
     35 H6          -0.9690     0.0290    -2.0580 h1         1 2EU       0.054200
     36 H7          -6.8270     3.4950    -1.0730 ha         1 2EU       0.160000
     37 H8           2.7850     0.7510     2.4220 ha         1 2EU       0.144000
     38 H9           0.4340     0.4130     2.1970 ha         1 2EU       0.139000
     39 H10         -5.9280     1.2710    -2.1410 ha         1 2EU       0.167000
     40 H11         -7.1000     3.2700     1.5250 h4         1 2EU       0.172000
     41 H12         -1.2000    -0.7550     2.0280 h1         1 2EU       0.054200
     42 H13         -1.4580    -2.1250     0.9510 h1         1 2EU       0.054200
     43 H14          1.0000    -0.6780    -1.9260 ha         1 2EU       0.139000
     44 H15          3.3300    -0.2980    -1.7120 ha         1 2EU       0.144000
     45 H16          4.7550    -0.3220     2.3530 ho         1 2EU       0.439000
     46 C1           4.7710     0.5050     0.5910 c3         1 2EU       0.096100
@<TRIPOS>BOND
     1     1     3 1   
     2     1     4 1   
     3     1    15 1   
     4     2    26 1   
     5     2    27 1   
     6     2    28 1   
     7     2    46 1   
     8     3     7 1   
     9     3    30 1   
    10     3    31 1   
    11     4    18 1   
    12     4    32 1   
    13     4    33 1   
    14     5     9 ar  
    15     5    21 ar  
    16     5    46 1   
    17     6    10 ar  
    18     6    19 1   
    19     6    20 ar  
    20     7    19 1   
    21     7    34 1   
    22     7    35 1   
    23     8    11 1   
    24     8    12 2   
    25     8    36 1   
    26     9    10 ar  
    27     9    37 1   
    28    10    38 1   
    29    11    14 2   
    30    11    39 1   
    31    12    13 1   
    32    12    40 1   
    33    13    14 1   
    34    14    15 1   
    35    15    16 2   
    36    15    17 2   
    37    18    19 1   
    38    18    41 1   
    39    18    42 1   
    40    20    21 ar  
    41    20    43 1   
    42    21    44 1   
    43    22    23 1   
    44    22    24 1   
    45    22    25 1   
    46    22    46 1   
    47    29    45 1   
    48    29    46 1   
@<TRIPOS>SUBSTRUCTURE
     1 2EU         1 TEMP              0 ****  ****    0 ROOT
