@<TRIPOS>MOLECULE
2EV
   52    54     1     0     0
SMALL
abcg2


@<TRIPOS>ATOM
      1 S1          -2.8200     0.8530     1.0610 sy         1 2EV       1.205600
      2 N2          -1.4500     0.0880     0.6470 n3         1 2EV      -0.815500
      3 C3           0.7590    -0.3160     0.1460 c5         1 2EV      -0.141700
      4 C4           0.1180    -1.6270     0.5800 c5         1 2EV      -0.151700
      5 C5           2.2220    -0.2220     0.5420 c          1 2EV       0.622100
      6 C6          -2.8130     2.2830    -0.0010 ca         1 2EV      -0.276500
      7 C7          -0.1460     0.7110     0.8300 c5         1 2EV       0.233800
      8 C8          -1.3810    -1.3560     0.4110 c5         1 2EV       0.254800
      9 N9           2.9440     0.7940     0.0300 n          1 2EV      -0.408800
     10 C10          0.5890    -2.8160    -0.2310 c          1 2EV       0.618100
     11 N11          2.9980    -6.6140     0.4010 n2         1 2EV      -0.728100
     12 O12         -3.9220    -0.0240     0.7070 o          1 2EV      -0.536500
     13 O13         -2.7470     1.3620     2.4230 o          1 2EV      -0.536500
     14 C14          2.4760    -5.5050     0.1050 c2         1 2EV       0.393200
     15 C15         -2.8050     2.1740    -1.3900 ca         1 2EV       0.205000
     16 O16          2.7000    -1.0490     1.3060 o          1 2EV      -0.607100
     17 O17          0.9010    -2.7120    -1.4070 o          1 2EV      -0.601100
     18 N18          0.5940    -3.9810     0.4370 ns         1 2EV      -0.493900
     19 O19          4.7400     2.1570    -1.6670 os         1 2EV      -0.442000
     20 CL1         -2.7670     0.6420    -2.1810 cl         1 2EV      -0.166000
     21 C21         -2.8320     3.5410     0.5900 ca         1 2EV      -0.011000
     22 C22          2.4680     1.8150    -0.8880 c6         1 2EV       0.059500
     23 C23          4.3330     0.9920     0.4170 c6         1 2EV       0.059500
     24 C24          1.0160    -5.2290    -0.1460 c3         1 2EV      -0.005300
     25 C25          5.2020     1.1280    -0.8210 c6         1 2EV       0.135600
     26 C26          3.4140     1.9200    -2.0750 c6         1 2EV       0.135600
     27 C27         -2.8160     3.3140    -2.1770 ca         1 2EV      -0.129000
     28 C28         -2.8460     4.6810    -0.1970 ca         1 2EV      -0.131000
     29 C29         -2.8380     4.5650    -1.5780 ca         1 2EV      -0.050000
     30 H1           0.6480    -0.2200    -0.9370 hc         1 2EV       0.100700
     31 H2           0.3240    -1.7940     1.6400 hc         1 2EV       0.085700
     32 H3          -0.1130     1.6950     0.3600 h1         1 2EV       0.059700
     33 H4           0.1130     0.8300     1.8870 h1         1 2EV       0.059700
     34 H5          -1.9690    -1.9270     1.1270 h1         1 2EV       0.067200
     35 H6          -1.7300    -1.5950    -0.5960 h1         1 2EV       0.067200
     36 H7           2.2900    -7.3430     0.4760 hn         1 2EV       0.364400
     37 H8           3.1360    -4.6410     0.0030 h4         1 2EV       0.031800
     38 H9           0.3920    -3.9740     1.4240 hn         1 2EV       0.321500
     39 H10         -2.8340     3.6320     1.6670 ha         1 2EV       0.149000
     40 H11          1.4760     1.5830    -1.2660 h1         1 2EV       0.062700
     41 H12          2.4090     2.7750    -0.3670 h1         1 2EV       0.062700
     42 H13          4.4070     1.8960     1.0300 h1         1 2EV       0.062700
     43 H14          4.6740     0.1520     1.0170 h1         1 2EV       0.062700
     44 H15          0.8470    -5.1890    -1.2240 h1         1 2EV       0.069200
     45 H16          0.4010    -6.0390     0.2490 h1         1 2EV       0.069200
     46 H17          5.2240     0.1680    -1.3560 h1         1 2EV       0.057450
     47 H18          6.2220     1.3750    -0.5280 h1         1 2EV       0.057450
     48 H19          3.1090     2.7510    -2.7110 h1         1 2EV       0.057450
     49 H20          3.3500     0.9960    -2.6670 h1         1 2EV       0.057450
     50 H21         -2.8080     3.2240    -3.2540 ha         1 2EV       0.134000
     51 H22         -2.8610     5.6550     0.2720 ha         1 2EV       0.126000
     52 H23         -2.8470     5.4480    -2.2020 ha         1 2EV       0.123000
@<TRIPOS>BOND
     1     1     2 1   
     2     1     6 1   
     3     1    12 2   
     4     1    13 2   
     5     2     7 1   
     6     2     8 1   
     7     3     4 1   
     8     3     5 1   
     9     3     7 1   
    10     3    30 1   
    11     4     8 1   
    12     4    10 1   
    13     4    31 1   
    14     5     9 1   
    15     5    16 2   
    16     6    15 ar  
    17     6    21 ar  
    18     7    32 1   
    19     7    33 1   
    20     8    34 1   
    21     8    35 1   
    22     9    22 1   
    23     9    23 1   
    24    10    17 2   
    25    10    18 1   
    26    11    14 2   
    27    11    36 1   
    28    14    24 1   
    29    14    37 1   
    30    15    20 1   
    31    15    27 ar  
    32    18    24 1   
    33    18    38 1   
    34    19    25 1   
    35    19    26 1   
    36    21    28 ar  
    37    21    39 1   
    38    22    26 1   
    39    22    40 1   
    40    22    41 1   
    41    23    25 1   
    42    23    42 1   
    43    23    43 1   
    44    24    44 1   
    45    24    45 1   
    46    25    46 1   
    47    25    47 1   
    48    26    48 1   
    49    26    49 1   
    50    27    29 ar  
    51    27    50 1   
    52    28    29 ar  
    53    28    51 1   
    54    29    52 1   
@<TRIPOS>SUBSTRUCTURE
     1 2EV         1 TEMP              0 ****  ****    0 ROOT
