@<TRIPOS>MOLECULE
2EV
   52    54     1     0     0
SMALL
No Charge or Current Charge


@<TRIPOS>ATOM
      1 S1          -3.1960     0.6610     0.3890 sy         1 2EV       1.205600
      2 N2          -1.7130    -0.1560     0.3420 n3         1 2EV      -0.815500
      3 C3           0.5310    -0.5360     0.2650 c5         1 2EV      -0.141700
      4 C4          -0.1000    -1.8320     0.8890 c5         1 2EV      -0.151700
      5 C5           1.9180    -0.1780     0.8590 c          1 2EV       0.622100
      6 C6          -2.7650     2.2830    -0.2680 ca         1 2EV      -0.276500
      7 C7          -0.4750     0.5170     0.7570 c5         1 2EV       0.233800
      8 C8          -1.6300    -1.5320     0.8810 c5         1 2EV       0.254800
      9 N9           2.7810     0.4440    -0.0810 n          1 2EV      -0.408800
     10 C10          0.1850    -3.0600    -0.0020 c          1 2EV       0.618100
     11 N11          3.5240    -4.6270    -0.5390 n2         1 2EV      -0.728100
     12 O12         -4.0600    -0.0140    -0.5850 o          1 2EV      -0.536500
     13 O13         -3.5670     0.7800     1.8030 o          1 2EV      -0.536500
     14 C14          2.4070    -5.2080    -0.8140 c2         1 2EV       0.393200
     15 C15         -2.2890     2.4460    -1.5900 ca         1 2EV       0.205000
     16 O16          2.2850    -0.4370     1.9990 o          1 2EV      -0.607100
     17 O17         -0.0820    -3.1970    -1.1880 o          1 2EV      -0.601100
     18 N18          0.8320    -4.0300     0.7360 ns         1 2EV      -0.493900
     19 O19          4.5860     2.2070    -1.5260 os         1 2EV      -0.442000
     20 Cl1         -2.0600     1.0970    -2.7060 cl         1 2EV      -0.166000
     21 C21         -2.8860     3.4150     0.5700 ca         1 2EV      -0.011000
     22 C22          2.2830     1.5280    -1.0030 c6         1 2EV       0.059500
     23 C23          4.2260     0.5960     0.2870 c6         1 2EV       0.059500
     24 C24          1.2720    -5.3320     0.1930 c3         1 2EV      -0.005300
     25 C25          5.1410     1.0480    -0.8780 c6         1 2EV       0.135600
     26 C26          3.2940     1.9440    -2.1020 c6         1 2EV       0.135600
     27 C27         -1.9490     3.7280    -2.0550 ca         1 2EV      -0.129000
     28 C28         -2.5450     4.6910     0.0920 ca         1 2EV      -0.131000
     29 C29         -2.0770     4.8500    -1.2210 ca         1 2EV      -0.050000
     30 H1           0.5450    -0.5490    -0.8280 hc         1 2EV       0.100700
     31 H2           0.2340    -2.0060     1.9190 hc         1 2EV       0.085700
     32 H3          -0.3230     1.4860     0.2640 h1         1 2EV       0.059700
     33 H4          -0.4340     0.6700     1.8460 h1         1 2EV       0.059700
     34 H5          -2.0340    -1.5880     1.9020 h1         1 2EV       0.067200
     35 H6          -2.2010    -2.2400     0.2630 h1         1 2EV       0.067200
     36 H7           3.4870    -4.2720     0.4260 hn         1 2EV       0.364400
     37 H8           2.2450    -5.6490    -1.7950 h4         1 2EV       0.031800
     38 H9           1.0090    -3.8220     1.7130 hn         1 2EV       0.321500
     39 H10         -3.2450     3.3150     1.5940 ha         1 2EV       0.149000
     40 H11          1.3560     1.2340    -1.5110 h1         1 2EV       0.062700
     41 H12          2.0440     2.4140    -0.3980 h1         1 2EV       0.062700
     42 H13          4.3060     1.3290     1.1020 h1         1 2EV       0.062700
     43 H14          4.6040    -0.3600     0.6760 h1         1 2EV       0.062700
     44 H15          0.4160    -5.8210    -0.2900 h1         1 2EV       0.069200
     45 H16          1.5930    -5.9720     1.0240 h1         1 2EV       0.069200
     46 H17          5.2450     0.2360    -1.6120 h1         1 2EV       0.057450
     47 H18          6.1420     1.2920    -0.4960 h1         1 2EV       0.057450
     48 H19          2.9370     2.8470    -2.6170 h1         1 2EV       0.057450
     49 H20          3.3870     1.1410    -2.8490 h1         1 2EV       0.057450
     50 H21         -1.5800     3.8510    -3.0700 ha         1 2EV       0.134000
     51 H22         -2.6430     5.5570     0.7420 ha         1 2EV       0.126000
     52 H23         -1.8110     5.8380    -1.5900 ha         1 2EV       0.123000
@<TRIPOS>BOND
     1     1     2 1   
     2     1     6 1   
     3     1    12 2   
     4     1    13 2   
     5     2     7 1   
     6     2     8 1   
     7     3     4 1   
     8     3     5 1   
     9     3     7 1   
    10     3    30 1   
    11     4     8 1   
    12     4    10 1   
    13     4    31 1   
    14     5     9 1   
    15     5    16 2   
    16     6    15 ar  
    17     6    21 ar  
    18     7    32 1   
    19     7    33 1   
    20     8    34 1   
    21     8    35 1   
    22     9    22 1   
    23     9    23 1   
    24    10    17 2   
    25    10    18 1   
    26    11    14 2   
    27    11    36 1   
    28    14    24 1   
    29    14    37 1   
    30    15    20 1   
    31    15    27 ar  
    32    18    24 1   
    33    18    38 1   
    34    19    25 1   
    35    19    26 1   
    36    21    28 ar  
    37    21    39 1   
    38    22    26 1   
    39    22    40 1   
    40    22    41 1   
    41    23    25 1   
    42    23    42 1   
    43    23    43 1   
    44    24    44 1   
    45    24    45 1   
    46    25    46 1   
    47    25    47 1   
    48    26    48 1   
    49    26    49 1   
    50    27    29 ar  
    51    27    50 1   
    52    28    29 ar  
    53    28    51 1   
    54    29    52 1   
@<TRIPOS>SUBSTRUCTURE
     1 2EV         1 TEMP              0 ****  ****    0 ROOT
