@<TRIPOS>MOLECULE
2EW
   52    54     1     0     0
SMALL
No Charge or Current Charge


@<TRIPOS>ATOM
      1 S1          -3.0500    -1.4450    -1.3330 sy         1 2EW       1.156600
      2 N2          -1.8440    -0.3060    -1.7110 n3         1 2EW      -0.724500
      3 C3           0.1300     0.3630    -0.6150 c5         1 2EW      -0.168700
      4 C4          -0.5410     1.6340    -1.2190 c5         1 2EW      -0.150700
      5 C5           1.6750     0.3770    -0.7130 c          1 2EW       0.625100
      6 C6          -0.4050    -0.6620    -1.6330 c5         1 2EW       0.205800
      7 C7          -2.0010     1.1270    -1.3320 c5         1 2EW       0.213800
      8 N8           2.2990    -0.3590     0.3270 n          1 2EW      -0.407800
      9 C9          -0.4820     2.8200    -0.2310 c          1 2EW       0.614100
     10 N10          1.9530     6.2010     1.4140 n2         1 2EW      -0.726100
     11 O11         -4.2010    -0.6710    -0.8540 o          1 2EW      -0.529000
     12 O12         -3.1620    -2.3400    -2.4900 o          1 2EW      -0.529000
     13 C13         -2.3300    -2.3010     0.0840 ca         1 2EW      -0.308500
     14 C14          1.4560     5.1460     0.8650 c2         1 2EW       0.393200
     15 O15          2.3200     0.9870    -1.5550 o          1 2EW      -0.606100
     16 O16         -0.8680     2.8360     0.9280 o          1 2EW      -0.608100
     17 N17          0.1140     3.9040    -0.8390 ns         1 2EW      -0.487900
     18 O18          3.8590    -2.1980     1.9510 os         1 2EW      -0.441000
     19 C19          1.7650    -1.6990     0.7680 c6         1 2EW       0.058500
     20 C20          3.7820    -0.2260     0.4920 c6         1 2EW       0.058500
     21 C21          0.3500     5.2030    -0.1780 c3         1 2EW      -0.006300
     22 C22          4.3400    -0.8500     1.7970 c6         1 2EW       0.136600
     23 C23          2.4250    -2.2570     2.0540 c6         1 2EW       0.136600
     24 C24         -1.7450    -3.5750    -0.0710 ca         1 2EW      -0.020500
     25 C25         -2.3220    -1.6770     1.3490 ca         1 2EW      -0.020500
     26 C26         -1.7300    -2.3230     2.4480 ca         1 2EW      -0.129500
     27 C27         -1.1540    -4.2150     1.0320 ca         1 2EW      -0.129500
     28 C28         -1.1460    -3.5910     2.2910 ca         1 2EW      -0.056000
     29 H1          -0.2150     0.1220     0.3950 hc         1 2EW       0.095700
     30 H2          -0.1370     1.9030    -2.2030 hc         1 2EW       0.090700
     31 H3          -0.2220    -1.7000    -1.3240 h1         1 2EW       0.073200
     32 H4           0.0730    -0.5340    -2.6160 h1         1 2EW       0.073200
     33 H5          -2.5880     1.6940    -2.0670 h1         1 2EW       0.071200
     34 H6          -2.5120     1.2170    -0.3620 h1         1 2EW       0.071200
     35 H7           1.4840     7.0380     1.0370 hn         1 2EW       0.365400
     36 H8           1.8300     4.1630     1.1410 h4         1 2EW       0.029800
     37 H9           0.4170     3.7830    -1.7990 hn         1 2EW       0.324500
     38 H10          0.6850    -1.6650     0.9500 h1         1 2EW       0.063450
     39 H11          1.9250    -2.4210    -0.0460 h1         1 2EW       0.063450
     40 H12          4.2760    -0.7040    -0.3650 h1         1 2EW       0.063450
     41 H13          4.0560     0.8380     0.4700 h1         1 2EW       0.063450
     42 H14         -0.5830     5.5320     0.2990 h1         1 2EW       0.069700
     43 H15          0.6110     5.9410    -0.9470 h1         1 2EW       0.069700
     44 H16          4.0270    -0.2510     2.6640 h1         1 2EW       0.056950
     45 H17          5.4390    -0.8590     1.7680 h1         1 2EW       0.056950
     46 H18          2.1160    -3.3010     2.2100 h1         1 2EW       0.056950
     47 H19          2.0990    -1.6730     2.9270 h1         1 2EW       0.056950
     48 H20         -1.7390    -4.0690    -1.0420 ha         1 2EW       0.136000
     49 H21         -2.7640    -0.6900     1.4820 ha         1 2EW       0.136000
     50 H22         -1.7230    -1.8390     3.4220 ha         1 2EW       0.121500
     51 H23         -0.7020    -5.1970     0.9110 ha         1 2EW       0.121500
     52 H24         -0.6880    -4.0900     3.1440 ha         1 2EW       0.119000
@<TRIPOS>BOND
     1     1     2 1   
     2     1    11 2   
     3     1    12 2   
     4     1    13 1   
     5     2     6 1   
     6     2     7 1   
     7     3     4 1   
     8     3     5 1   
     9     3     6 1   
    10     3    29 1   
    11     4     7 1   
    12     4     9 1   
    13     4    30 1   
    14     5     8 1   
    15     5    15 2   
    16     6    31 1   
    17     6    32 1   
    18     7    33 1   
    19     7    34 1   
    20     8    19 1   
    21     8    20 1   
    22     9    16 2   
    23     9    17 1   
    24    10    14 2   
    25    10    35 1   
    26    13    24 ar  
    27    13    25 ar  
    28    14    21 1   
    29    14    36 1   
    30    17    21 1   
    31    17    37 1   
    32    18    22 1   
    33    18    23 1   
    34    19    23 1   
    35    19    38 1   
    36    19    39 1   
    37    20    22 1   
    38    20    40 1   
    39    20    41 1   
    40    21    42 1   
    41    21    43 1   
    42    22    44 1   
    43    22    45 1   
    44    23    46 1   
    45    23    47 1   
    46    24    27 ar  
    47    24    48 1   
    48    25    26 ar  
    49    25    49 1   
    50    26    28 ar  
    51    26    50 1   
    52    27    28 ar  
    53    27    51 1   
    54    28    52 1   
@<TRIPOS>SUBSTRUCTURE
     1 2EW         1 TEMP              0 ****  ****    0 ROOT
