@<TRIPOS>MOLECULE
2EW
   52    54     1     0     0
SMALL
bcc


@<TRIPOS>ATOM
      1 S1          -2.6810    -1.5710    -1.5840 sy         1 2EW       1.298200
      2 N2          -1.5580    -0.4140    -1.9290 n3         1 2EW      -0.724500
      3 C3           0.3530     0.1730    -0.7040 c5         1 2EW      -0.168700
      4 C4          -0.3780     1.4560    -1.0760 c5         1 2EW      -0.150700
      5 C5           1.8600     0.3420    -0.6390 c          1 2EW       0.692100
      6 C6          -0.1400    -0.7750    -1.7960 c5         1 2EW       0.205800
      7 C7          -1.7850     0.9520    -1.4190 c5         1 2EW       0.213800
      8 N8           2.5770    -0.6830    -0.1340 n          1 2EW      -0.474800
      9 C9          -0.3920     2.4610     0.0580 c          1 2EW       0.681100
     10 N10          1.8350     6.2400     1.2240 n2         1 2EW      -0.726100
     11 O11         -3.9770    -0.9240    -1.6880 o          1 2EW      -0.599800
     12 O12         -2.3700    -2.7240    -2.4100 o          1 2EW      -0.599800
     13 C13         -2.4040    -2.0230     0.1080 ca         1 2EW      -0.308500
     14 C14          1.2990     5.1090     1.0700 c2         1 2EW       0.393200
     15 O15          2.3780     1.3760    -1.0370 o          1 2EW      -0.606100
     16 O16         -0.6100     2.1170     1.2090 o          1 2EW      -0.608100
     17 N17         -0.1790     3.7360    -0.3060 ns         1 2EW      -0.554900
     18 O18          4.0280    -2.2560     1.7010 os         1 2EW      -0.394600
     19 C19          2.0430    -1.9460     0.3450 c6         1 2EW       0.058500
     20 C20          4.0300    -0.6320    -0.0970 c6         1 2EW       0.058500
     21 C21         -0.1160     4.8270     0.6340 c3         1 2EW      -0.006300
     22 C22          4.5240    -1.0010     1.2900 c6         1 2EW       0.113400
     23 C23          2.6210    -2.2650     1.7150 c6         1 2EW       0.113400
     24 C24         -1.5670    -3.0950     0.4000 ca         1 2EW      -0.038500
     25 C25         -2.9640    -1.2500     1.1190 ca         1 2EW      -0.038500
     26 C26         -2.6570    -1.5420     2.4390 ca         1 2EW      -0.147500
     27 C27         -1.2730    -3.3780     1.7260 ca         1 2EW      -0.147500
     28 C28         -1.8080    -2.5990     2.7430 ca         1 2EW      -0.074000
     29 H1          -0.0320    -0.1630     0.2660 hc         1 2EW       0.095700
     30 H2           0.0790     1.8900    -1.9680 hc         1 2EW       0.090700
     31 H3          -0.0040    -1.8290    -1.5590 h1         1 2EW       0.073200
     32 H4           0.3750    -0.5900    -2.7410 h1         1 2EW       0.073200
     33 H5          -2.2680     1.5690    -2.1740 h1         1 2EW       0.071200
     34 H6          -2.4140     0.9560    -0.5270 h1         1 2EW       0.071200
     35 H7           1.1830     6.9880     0.9930 hn         1 2EW       0.365400
     36 H8           1.9030     4.2240     1.2830 h4         1 2EW       0.029800
     37 H9           0.0620     3.9320    -1.2640 hn         1 2EW       0.324500
     38 H10          0.9600    -1.9140     0.4330 h1         1 2EW       0.063450
     39 H11          2.2890    -2.7420    -0.3660 h1         1 2EW       0.063450
     40 H12          4.4340    -1.3290    -0.8380 h1         1 2EW       0.063450
     41 H13          4.3730     0.3660    -0.3560 h1         1 2EW       0.063450
     42 H14         -0.7100     4.5680     1.5120 h1         1 2EW       0.069700
     43 H15         -0.5640     5.7160     0.1880 h1         1 2EW       0.069700
     44 H16          4.2330    -0.2180     2.0030 h1         1 2EW       0.056950
     45 H17          5.6130    -1.0650     1.2870 h1         1 2EW       0.056950
     46 H18          2.3010    -3.2610     2.0230 h1         1 2EW       0.056950
     47 H19          2.2340    -1.5400     2.4450 h1         1 2EW       0.056950
     48 H20         -1.1580    -3.7150    -0.3860 ha         1 2EW       0.154000
     49 H21         -3.6400    -0.4360     0.8940 ha         1 2EW       0.154000
     50 H22         -3.0860    -0.9430     3.2310 ha         1 2EW       0.139500
     51 H23         -0.6260    -4.2130     1.9610 ha         1 2EW       0.139500
     52 H24         -1.5720    -2.8220     3.7740 ha         1 2EW       0.137000
@<TRIPOS>BOND
     1     1     2 1   
     2     1    11 2   
     3     1    12 2   
     4     1    13 1   
     5     2     6 1   
     6     2     7 1   
     7     3     4 1   
     8     3     5 1   
     9     3     6 1   
    10     3    29 1   
    11     4     7 1   
    12     4     9 1   
    13     4    30 1   
    14     5     8 1   
    15     5    15 2   
    16     6    31 1   
    17     6    32 1   
    18     7    33 1   
    19     7    34 1   
    20     8    19 1   
    21     8    20 1   
    22     9    16 2   
    23     9    17 1   
    24    10    14 2   
    25    10    35 1   
    26    13    24 ar  
    27    13    25 ar  
    28    14    21 1   
    29    14    36 1   
    30    17    21 1   
    31    17    37 1   
    32    18    22 1   
    33    18    23 1   
    34    19    23 1   
    35    19    38 1   
    36    19    39 1   
    37    20    22 1   
    38    20    40 1   
    39    20    41 1   
    40    21    42 1   
    41    21    43 1   
    42    22    44 1   
    43    22    45 1   
    44    23    46 1   
    45    23    47 1   
    46    24    27 ar  
    47    24    48 1   
    48    25    26 ar  
    49    25    49 1   
    50    26    28 ar  
    51    26    50 1   
    52    27    28 ar  
    53    27    51 1   
    54    28    52 1   
@<TRIPOS>SUBSTRUCTURE
     1 2EW         1 TEMP              0 ****  ****    0 ROOT
