@<TRIPOS>MOLECULE
2EX
   47    51     1     0     0
SMALL
abcg2


@<TRIPOS>ATOM
      1 C1           3.5650     0.6650    -0.1340 cp         1 2EX      -0.097000
      2 C2           4.4890     1.4110    -0.8590 ca         1 2EX      -0.052000
      3 C3           5.8060     0.9880    -0.9680 ca         1 2EX      -0.180000
      4 C4           6.1700    -0.1890    -0.3410 ca         1 2EX       0.364900
      5 N5           5.3070    -0.9160     0.3660 nb         1 2EX      -0.706000
      6 C6           4.0810    -0.4910     0.4510 ca         1 2EX       0.573200
      7 C7           2.1630     1.0930     0.0130 cp         1 2EX      -0.082000
      8 C8           1.8660     2.4240     0.3160 ca         1 2EX      -0.053000
      9 C9           0.5590     2.8510     0.4250 ca         1 2EX      -0.152000
     10 C10         -0.4930     1.9550     0.2350 ca         1 2EX       0.183100
     11 C11         -0.2210     0.6220    -0.0760 ca         1 2EX      -0.150300
     12 C12          1.1040     0.2160    -0.1860 ca         1 2EX      -0.024000
     13 O13         -1.7360     2.4590     0.3420 os         1 2EX      -0.339100
     14 C14         -2.8290     1.5490     0.3820 c6         1 2EX       0.173300
     15 C15         -2.6360     0.3980    -0.5880 c6         1 2EX      -0.115700
     16 C16         -1.3410    -0.3740    -0.2960 c5         1 2EX       0.130500
     17 C17         -4.0970     2.3050     0.0360 c6         1 2EX      -0.113400
     18 C18         -5.2640     1.3290    -0.0110 c6         1 2EX       0.152600
     19 O19         -5.0300     0.2770    -0.9230 os         1 2EX      -0.443000
     20 C20         -3.8890    -0.4750    -0.5860 c6         1 2EX       0.158600
     21 N21         -1.0480    -1.2950    -1.3730 n2         1 2EX      -0.691900
     22 C22         -1.0360    -2.4740    -0.8660 c2         1 2EX       0.669800
     23 N23         -1.2700    -2.5290     0.5060 n          1 2EX      -0.384300
     24 C24         -1.4600    -1.2570     0.9550 c          1 2EX       0.545000
     25 O25         -1.6660    -0.9240     2.1000 o          1 2EX      -0.501000
     26 N26         -0.8750    -3.6220    -1.5440 nv         1 2EX      -1.031200
     27 C27         -1.3040    -3.7210     1.3200 c3         1 2EX       0.093300
     28 F28          3.2680    -1.2500     1.1930 f          1 2EX      -0.228200
     29 H1           4.1700     2.3220    -1.3490 ha         1 2EX       0.126000
     30 H2           6.5300     1.5550    -1.5360 ha         1 2EX       0.130000
     31 H3           7.1840    -0.5640    -0.4010 h4         1 2EX       0.026100
     32 H4           2.6670     3.1340     0.4820 ha         1 2EX       0.116000
     33 H5           0.3390     3.8840     0.6630 ha         1 2EX       0.131000
     34 H6           1.3030    -0.8100    -0.4700 ha         1 2EX       0.120000
     35 H7          -2.9130     1.1610     1.4050 h1         1 2EX       0.070700
     36 H8          -2.5190     0.8130    -1.5970 hc         1 2EX       0.098700
     37 H9          -4.3010     3.0780     0.7810 hc         1 2EX       0.066200
     38 H10         -3.9840     2.7970    -0.9340 hc         1 2EX       0.066200
     39 H11         -5.4500     0.9260     0.9950 h1         1 2EX       0.050200
     40 H12         -6.1730     1.8370    -0.3330 h1         1 2EX       0.050200
     41 H13         -3.7960    -1.2690    -1.3280 h1         1 2EX       0.054700
     42 H14         -4.0270    -0.9470     0.3980 h1         1 2EX       0.054700
     43 H15         -0.5620    -3.5420    -2.4970 hn         1 2EX       0.492000
     44 H16         -0.5710    -4.4530    -1.0650 hn         1 2EX       0.492000
     45 H17         -2.0270    -4.4340     0.9280 h1         1 2EX       0.052033
     46 H18         -0.3230    -4.1930     1.3710 h1         1 2EX       0.052033
     47 H19         -1.6030    -3.4440     2.3270 h1         1 2EX       0.052033
@<TRIPOS>BOND
     1     1     2 ar  
     2     1     6 ar  
     3     1     7 1   
     4     2     3 ar  
     5     2    29 1   
     6     3     4 ar  
     7     3    30 1   
     8     4     5 ar  
     9     4    31 1   
    10     5     6 ar  
    11     6    28 1   
    12     7     8 ar  
    13     7    12 ar  
    14     8     9 ar  
    15     8    32 1   
    16     9    10 ar  
    17     9    33 1   
    18    10    11 ar  
    19    10    13 1   
    20    11    12 ar  
    21    11    16 1   
    22    12    34 1   
    23    13    14 1   
    24    14    15 1   
    25    14    17 1   
    26    14    35 1   
    27    15    16 1   
    28    15    20 1   
    29    15    36 1   
    30    16    21 1   
    31    16    24 1   
    32    17    18 1   
    33    17    37 1   
    34    17    38 1   
    35    18    19 1   
    36    18    39 1   
    37    18    40 1   
    38    19    20 1   
    39    20    41 1   
    40    20    42 1   
    41    21    22 2   
    42    22    23 1   
    43    22    26 1   
    44    23    24 1   
    45    23    27 1   
    46    24    25 2   
    47    26    43 1   
    48    26    44 1   
    49    27    45 1   
    50    27    46 1   
    51    27    47 1   
@<TRIPOS>SUBSTRUCTURE
     1 2EX         1 TEMP              0 ****  ****    0 ROOT
