@<TRIPOS>MOLECULE
2EX
   47    51     1     0     0
SMALL
No Charge or Current Charge


@<TRIPOS>ATOM
      1 C1           3.6090     0.6370    -0.1180 cp         1 2EX      -0.097000
      2 C2           4.5840     1.3890    -0.8170 ca         1 2EX      -0.052000
      3 C3           5.9060     0.9180    -0.8650 ca         1 2EX      -0.180000
      4 C4           6.2340    -0.2830    -0.2170 ca         1 2EX       0.364900
      5 N5           5.3310    -1.0210     0.4640 nb         1 2EX      -0.706000
      6 C6           4.0600    -0.5630     0.5030 ca         1 2EX       0.573200
      7 C7           2.1890     1.1090    -0.0460 cp         1 2EX      -0.082000
      8 C8           1.8950     2.4750     0.1710 ca         1 2EX      -0.053000
      9 C9           0.5660     2.9200     0.2440 ca         1 2EX      -0.152000
     10 C10         -0.4940     2.0140     0.1010 ca         1 2EX       0.183100
     11 C11         -0.2400     0.6450    -0.1480 ca         1 2EX      -0.150300
     12 C12          1.1040     0.2120    -0.2090 ca         1 2EX      -0.024000
     13 O13         -1.7780     2.5070     0.1890 os         1 2EX      -0.339100
     14 C14         -2.8750     1.5920     0.3480 c6         1 2EX       0.173300
     15 C15         -2.7160     0.4000    -0.6250 c6         1 2EX      -0.115700
     16 C16         -1.3880    -0.3630    -0.3220 c5         1 2EX       0.130500
     17 C17         -4.2120     2.3320     0.1110 c6         1 2EX      -0.113400
     18 C18         -5.3910     1.3350     0.1400 c6         1 2EX       0.152600
     19 O19         -5.1610     0.2820    -0.8210 os         1 2EX      -0.443000
     20 C20         -3.9790    -0.5050    -0.5590 c6         1 2EX       0.158600
     21 N21         -1.1320    -1.3090    -1.4700 n2         1 2EX      -0.691900
     22 C22         -1.0640    -2.4520    -0.9210 c2         1 2EX       0.669800
     23 N23         -1.2320    -2.5230     0.4420 n          1 2EX      -0.384300
     24 C24         -1.4650    -1.2670     0.9560 c          1 2EX       0.545000
     25 O25         -1.6690    -0.9840     2.1300 o          1 2EX      -0.501000
     26 N26         -0.8250    -3.5980    -1.5840 nv         1 2EX      -1.031200
     27 C27         -1.2310    -3.7410     1.2820 c3         1 2EX       0.093300
     28 F28          3.2230    -1.3370     1.2290 f          1 2EX      -0.228200
     29 H1           4.3160     2.3140    -1.3230 ha         1 2EX       0.126000
     30 H2           6.6730     1.4730    -1.3980 ha         1 2EX       0.130000
     31 H3           7.2540    -0.6660    -0.2420 h4         1 2EX       0.026100
     32 H4           2.7020     3.1930     0.2990 ha         1 2EX       0.116000
     33 H5           0.3560     3.9710     0.4210 ha         1 2EX       0.131000
     34 H6           1.3150    -0.8370    -0.4010 ha         1 2EX       0.120000
     35 H7          -2.8630     1.2190     1.3820 h1         1 2EX       0.070700
     36 H8          -2.6510     0.8070    -1.6430 hc         1 2EX       0.098700
     37 H9          -4.3570     3.1040     0.8780 hc         1 2EX       0.066200
     38 H10         -4.1910     2.8460    -0.8600 hc         1 2EX       0.066200
     39 H11         -5.5000     0.8960     1.1430 h1         1 2EX       0.050200
     40 H12         -6.3280     1.8510    -0.1120 h1         1 2EX       0.050200
     41 H13         -3.9150    -1.3030    -1.3120 h1         1 2EX       0.054700
     42 H14         -4.0770    -0.9770     0.4300 h1         1 2EX       0.054700
     43 H15         -0.5080    -3.4200    -2.5300 hn         1 2EX       0.492000
     44 H16         -0.2540    -4.2600    -1.0750 hn         1 2EX       0.492000
     45 H17         -1.8610    -4.5130     0.8220 h1         1 2EX       0.052033
     46 H18         -0.2060    -4.1210     1.3810 h1         1 2EX       0.052033
     47 H19         -1.6250    -3.5230     2.2820 h1         1 2EX       0.052033
@<TRIPOS>BOND
     1     1     2 ar  
     2     1     6 ar  
     3     1     7 1   
     4     2     3 ar  
     5     2    29 1   
     6     3     4 ar  
     7     3    30 1   
     8     4     5 ar  
     9     4    31 1   
    10     5     6 ar  
    11     6    28 1   
    12     7     8 ar  
    13     7    12 ar  
    14     8     9 ar  
    15     8    32 1   
    16     9    10 ar  
    17     9    33 1   
    18    10    11 ar  
    19    10    13 1   
    20    11    12 ar  
    21    11    16 1   
    22    12    34 1   
    23    13    14 1   
    24    14    15 1   
    25    14    17 1   
    26    14    35 1   
    27    15    16 1   
    28    15    20 1   
    29    15    36 1   
    30    16    21 1   
    31    16    24 1   
    32    17    18 1   
    33    17    37 1   
    34    17    38 1   
    35    18    19 1   
    36    18    39 1   
    37    18    40 1   
    38    19    20 1   
    39    20    41 1   
    40    20    42 1   
    41    21    22 2   
    42    22    23 1   
    43    22    26 1   
    44    23    24 1   
    45    23    27 1   
    46    24    25 2   
    47    26    43 1   
    48    26    44 1   
    49    27    45 1   
    50    27    46 1   
    51    27    47 1   
@<TRIPOS>SUBSTRUCTURE
     1 2EX         1 TEMP              0 ****  ****    0 ROOT
