@<TRIPOS>MOLECULE
2EY
   41    44     1     0     0
SMALL
abcg2


@<TRIPOS>ATOM
      1 CL1         30.5310    -8.8470     4.2200 cl         1 2EY      -0.193000
      2 C19         30.5600    -8.3450     2.5460 ca         1 2EY       0.124000
      3 C18         31.4880    -8.9100     1.6810 ca         1 2EY      -0.089500
      4 C17         31.5070    -8.5150     0.3510 ca         1 2EY      -0.093500
      5 C16         30.6080    -7.5510    -0.0930 ca         1 2EY       0.001800
      6 C21         29.6850    -6.9840     0.7790 ca         1 2EY      -0.093500
      7 C20         29.6550    -7.3880     2.1060 ca         1 2EY      -0.089500
      8 N3          30.6360    -7.1430    -1.4530 na         1 2EY       0.210000
      9 C15         29.6130    -6.7060    -2.2250 cc         1 2EY      -0.159000
     10 C14         30.1910    -6.4270    -3.4390 cd         1 2EY       0.154300
     11 N1          31.5190    -6.7040    -3.3480 nd         1 2EY      -0.340000
     12 N2          31.7910    -7.1390    -2.1520 nc         1 2EY      -0.181800
     13 C11         29.5630    -5.9250    -4.7010 c3         1 2EY       0.163000
     14 C12         28.7270    -6.9750    -5.4100 c3         1 2EY      -0.087100
     15 O1          28.6600    -4.8320    -4.4110 os         1 2EY      -0.356100
     16 C1          29.1450    -3.6460    -4.0040 cc         1 2EY       0.231900
     17 C6          28.1260    -2.6750    -3.6740 ca         1 2EY      -0.142800
     18 C7          26.7510    -2.9450    -3.7580 ca         1 2EY      -0.033000
     19 C8          25.8240    -1.9770    -3.4240 ca         1 2EY      -0.159000
     20 C9          26.2570    -0.7150    -2.9990 ca         1 2EY      -0.050000
     21 C10         27.6050    -0.4260    -2.9090 ca         1 2EY      -0.175000
     22 C5          28.5500    -1.4030    -3.2440 ca         1 2EY       0.116600
     23 N4          29.8970    -1.1370    -3.1570 ns         1 2EY      -0.383100
     24 C3          30.9010    -2.0320    -3.4550 c          1 2EY       0.576200
     25 C2          30.4670    -3.3350    -3.8950 cd         1 2EY      -0.405200
     26 H1          32.1820    -9.6590     2.0360 ha         1 2EY       0.139000
     27 H2          32.2110    -8.9580    -0.3380 ha         1 2EY       0.139500
     28 H3          29.0000    -6.2210     0.4360 ha         1 2EY       0.139500
     29 H4          28.9430    -6.9510     2.7920 ha         1 2EY       0.139000
     30 H5          28.5990    -6.6410    -1.8740 h4         1 2EY       0.175000
     31 H6          30.3530    -5.5690    -5.3650 h1         1 2EY       0.079700
     32 H7          29.3560    -7.8290    -5.6640 hc         1 2EY       0.054367
     33 H8          27.9180    -7.3170    -4.7630 hc         1 2EY       0.054367
     34 H9          28.3050    -6.5620    -6.3270 hc         1 2EY       0.054367
     35 H10         26.4300    -3.9220    -4.0870 ha         1 2EY       0.128000
     36 H11         24.7660    -2.1940    -3.4900 ha         1 2EY       0.120000
     37 H12         25.5320     0.0440    -2.7360 ha         1 2EY       0.117000
     38 H13         27.9440     0.5480    -2.5800 ha         1 2EY       0.121000
     39 H14         30.1950    -0.2210    -2.8450 hn         1 2EY       0.328500
     40 H15         31.2510    -4.0380    -4.1200 ha         1 2EY       0.226000
     41 O2          32.0880    -1.6990    -3.3360 o          1 2EY      -0.560000
@<TRIPOS>BOND
     1     1     2 1   
     2     2     3 ar  
     3     2     7 ar  
     4     3     4 ar  
     5     3    26 1   
     6     4     5 ar  
     7     4    27 1   
     8     5     6 ar  
     9     5     8 1   
    10     6     7 ar  
    11     6    28 1   
    12     7    29 1   
    13     8     9 1   
    14     8    12 1   
    15     9    10 2   
    16     9    30 1   
    17    10    11 1   
    18    10    13 1   
    19    11    12 2   
    20    13    14 1   
    21    13    15 1   
    22    13    31 1   
    23    14    32 1   
    24    14    33 1   
    25    14    34 1   
    26    15    16 1   
    27    16    17 1   
    28    16    25 2   
    29    17    18 ar  
    30    17    22 ar  
    31    18    19 ar  
    32    18    35 1   
    33    19    20 ar  
    34    19    36 1   
    35    20    21 ar  
    36    20    37 1   
    37    21    22 ar  
    38    21    38 1   
    39    22    23 1   
    40    23    24 1   
    41    23    39 1   
    42    24    25 1   
    43    24    41 2   
    44    25    40 1   
@<TRIPOS>SUBSTRUCTURE
     1 2EY         1 TEMP              0 ****  ****    0 ROOT
