@<TRIPOS>MOLECULE
2EY
   41    44     1     0     0
SMALL
No Charge or Current Charge


@<TRIPOS>ATOM
      1 Cl1         30.4520    -8.1620     4.2700 cl         1 2EY      -0.193000
      2 C19         30.5200    -7.8900     2.5340 ca         1 2EY       0.124000
      3 C18         31.0340    -8.8850     1.6870 ca         1 2EY      -0.089500
      4 C17         31.0890    -8.6690     0.2980 ca         1 2EY      -0.093500
      5 C16         30.6280    -7.4530    -0.2540 ca         1 2EY       0.001800
      6 C21         30.1140    -6.4580     0.6070 ca         1 2EY      -0.093500
      7 C20         30.0610    -6.6770     1.9960 ca         1 2EY      -0.089500
      8 N3          30.6800    -7.2370    -1.6350 na         1 2EY       0.210000
      9 C15         29.7110    -6.6010    -2.3580 cc         1 2EY      -0.159000
     10 C14         30.2690    -6.5690    -3.6090 cd         1 2EY       0.154300
     11 N1          31.5230    -7.1640    -3.5770 nd         1 2EY      -0.340000
     12 N2          31.7820    -7.5650    -2.3580 nc         1 2EY      -0.181800
     13 C11         29.6870    -5.9730    -4.8770 c3         1 2EY       0.163000
     14 C12         28.9140    -7.0210    -5.6990 c3         1 2EY      -0.087100
     15 O1          28.7450    -4.9280    -4.5490 os         1 2EY      -0.356100
     16 C1          29.1010    -3.7270    -3.9760 cc         1 2EY       0.231900
     17 C6          28.0640    -2.7800    -3.5730 ca         1 2EY      -0.142800
     18 C7          26.6930    -3.0440    -3.7700 ca         1 2EY      -0.033000
     19 C8          25.7300    -2.1030    -3.3620 ca         1 2EY      -0.159000
     20 C9          26.1290    -0.8970    -2.7590 ca         1 2EY      -0.050000
     21 C10         27.4950    -0.6330    -2.5620 ca         1 2EY      -0.175000
     22 C5          28.4540    -1.5750    -2.9690 ca         1 2EY       0.116600
     23 N4          29.8240    -1.3370    -2.7830 ns         1 2EY      -0.383100
     24 C3          30.8570    -2.1660    -3.1300 c          1 2EY       0.576200
     25 C2          30.4330    -3.4250    -3.7590 cd         1 2EY      -0.405200
     26 H1          31.3880    -9.8240     2.1070 ha         1 2EY       0.139000
     27 H2          31.4850    -9.4500    -0.3480 ha         1 2EY       0.139500
     28 H3          29.7630    -5.5100     0.2050 ha         1 2EY       0.139500
     29 H4          29.6660    -5.9080     2.6540 ha         1 2EY       0.139000
     30 H5          28.7710    -6.2460    -1.9620 h4         1 2EY       0.175000
     31 H6          30.4990    -5.5820    -5.5040 h1         1 2EY       0.079700
     32 H7          29.5790    -7.8410    -5.9960 hc         1 2EY       0.054367
     33 H8          28.0880    -7.4420    -5.1140 hc         1 2EY       0.054367
     34 H9          28.5030    -6.5690    -6.6090 hc         1 2EY       0.054367
     35 H10         26.3710    -3.9730    -4.2350 ha         1 2EY       0.128000
     36 H11         24.6730    -2.3080    -3.5150 ha         1 2EY       0.120000
     37 H12         25.3820    -0.1710    -2.4440 ha         1 2EY       0.117000
     38 H13         27.8050     0.2980    -2.0940 ha         1 2EY       0.121000
     39 H14         30.0850    -0.4630    -2.3480 hn         1 2EY       0.328500
     40 H15         31.2580    -4.0680    -4.0280 ha         1 2EY       0.226000
     41 O2          32.0230    -1.8730    -2.9290 o          1 2EY      -0.560000
@<TRIPOS>BOND
     1     1     2 1   
     2     2     3 ar  
     3     2     7 ar  
     4     3     4 ar  
     5     3    26 1   
     6     4     5 ar  
     7     4    27 1   
     8     5     6 ar  
     9     5     8 1   
    10     6     7 ar  
    11     6    28 1   
    12     7    29 1   
    13     8     9 1   
    14     8    12 1   
    15     9    10 2   
    16     9    30 1   
    17    10    11 1   
    18    10    13 1   
    19    11    12 2   
    20    13    14 1   
    21    13    15 1   
    22    13    31 1   
    23    14    32 1   
    24    14    33 1   
    25    14    34 1   
    26    15    16 1   
    27    16    17 1   
    28    16    25 2   
    29    17    18 ar  
    30    17    22 ar  
    31    18    19 ar  
    32    18    35 1   
    33    19    20 ar  
    34    19    36 1   
    35    20    21 ar  
    36    20    37 1   
    37    21    22 ar  
    38    21    38 1   
    39    22    23 1   
    40    23    24 1   
    41    23    39 1   
    42    24    25 1   
    43    24    41 2   
    44    25    40 1   
@<TRIPOS>SUBSTRUCTURE
     1 2EY         1 TEMP              0 ****  ****    0 ROOT
