@<TRIPOS>MOLECULE
2EZ
   15    15     1     0     0
SMALL
abcg2


@<TRIPOS>ATOM
      1 N1          -1.0580    -0.0950    -0.7290 na         1 2EZ      -0.299500
      2 C2          -0.1100     0.2120     0.1830 cc         1 2EZ       0.398800
      3 N3           1.0750     0.2510    -0.3790 nd         1 2EZ      -0.676000
      4 C4           0.8750    -0.0400    -1.7000 cd         1 2EZ       0.233900
      5 C5          -0.4500    -0.2580    -1.9410 cc         1 2EZ      -0.236000
      6 C6          -0.4070     0.4490     1.6250 c3         1 2EZ      -0.097700
      7 C7           0.3180    -0.5360     2.5380 c3         1 2EZ      -0.085100
      8 HN1         -2.0470    -0.1780    -0.5510 hn         1 2EZ       0.347000
      9 H4           1.6910    -0.0790    -2.4050 h4         1 2EZ       0.036100
     10 H5          -0.9980    -0.5090    -2.8330 h4         1 2EZ       0.156000
     11 H61         -1.4850     0.3860     1.7880 hc         1 2EZ       0.049200
     12 H62         -0.1150     1.4680     1.8870 hc         1 2EZ       0.049200
     13 H71          0.0940    -0.3270     3.5840 hc         1 2EZ       0.041367
     14 H72          0.0170    -1.5630     2.3300 hc         1 2EZ       0.041367
     15 H73          1.3970    -0.4680     2.4060 hc         1 2EZ       0.041367
@<TRIPOS>BOND
     1     1     2 1   
     2     1     5 1   
     3     1     8 1   
     4     2     3 2   
     5     2     6 1   
     6     3     4 1   
     7     4     5 2   
     8     4     9 1   
     9     5    10 1   
    10     6     7 1   
    11     6    11 1   
    12     6    12 1   
    13     7    13 1   
    14     7    14 1   
    15     7    15 1   
@<TRIPOS>SUBSTRUCTURE
     1 2EZ         1 TEMP              0 ****  ****    0 ROOT
