@<TRIPOS>MOLECULE
2EZ
   15    15     1     0     0
SMALL
No Charge or Current Charge


@<TRIPOS>ATOM
      1 N1          -0.9340    -0.3530    -0.6290 na         1 2EZ      -0.299500
      2 C2          -0.0350     0.3110     0.1670 cc         1 2EZ       0.398800
      3 N3           1.0300     0.6660    -0.5330 nd         1 2EZ      -0.676000
      4 C4           0.8080     0.2170    -1.8190 cd         1 2EZ       0.233900
      5 C5          -0.4040    -0.4190    -1.9020 cc         1 2EZ      -0.236000
      6 C6          -0.2430     0.5850     1.6330 c3         1 2EZ      -0.097700
      7 C7           0.1080    -0.6170     2.5330 c3         1 2EZ      -0.085100
      8 HN1         -1.8250    -0.7240    -0.3170 hn         1 2EZ       0.347000
      9 H4           1.5310     0.3750    -2.6110 h4         1 2EZ       0.036100
     10 H5          -0.9020    -0.8920    -2.7400 h4         1 2EZ       0.156000
     11 H61         -1.2890     0.8680     1.8070 hc         1 2EZ       0.049200
     12 H62          0.3630     1.4470     1.9370 hc         1 2EZ       0.049200
     13 H71         -0.0570    -0.3680     3.5880 hc         1 2EZ       0.041367
     14 H72         -0.5140    -1.4840     2.2830 hc         1 2EZ       0.041367
     15 H73          1.1610    -0.8990     2.4060 hc         1 2EZ       0.041367
@<TRIPOS>BOND
     1     1     2 1   
     2     1     5 1   
     3     1     8 1   
     4     2     3 2   
     5     2     6 1   
     6     3     4 1   
     7     4     5 2   
     8     4     9 1   
     9     5    10 1   
    10     6     7 1   
    11     6    11 1   
    12     6    12 1   
    13     7    13 1   
    14     7    14 1   
    15     7    15 1   
@<TRIPOS>SUBSTRUCTURE
     1 2EZ         1 TEMP              0 ****  ****    0 ROOT
