@<TRIPOS>MOLECULE
2F0
   48    49     1     0     0
SMALL
bcc


@<TRIPOS>ATOM
      1 O1          -6.4340     1.8640     2.1570 o          1 2F0      -0.577100
      2 C11         -5.6950     1.9630     1.1930 c          1 2F0       0.687700
      3 N3          -5.4940     3.0970     0.5110 nt         1 2F0      -0.673000
      4 C7          -4.9000     0.7910     0.6960 ca         1 2F0      -0.117600
      5 C6          -3.5190     0.9000     0.6070 ca         1 2F0      -0.169000
      6 C8          -5.4990    -0.4190     0.3660 ca         1 2F0       0.037400
      7 CL1         -7.2220    -0.6000     0.3950 cl         1 2F0      -0.087400
      8 C9          -4.7210    -1.4910    -0.0360 ca         1 2F0      -0.103000
      9 C10         -3.3410    -1.3850    -0.0970 ca         1 2F0      -0.122000
     10 C5          -2.7190    -0.1760     0.2190 ca         1 2F0       0.088600
     11 N2          -1.3430     0.0170     0.2200 ns         1 2F0      -0.495100
     12 C4          -0.4130    -0.6540    -0.5500 c          1 2F0       0.796100
     13 O           -0.7220    -1.5440    -1.3270 o          1 2F0      -0.621100
     14 N1           0.8480    -0.2030    -0.3510 ns         1 2F0      -0.589900
     15 C1           2.0630    -0.7520    -0.9640 c3         1 2F0       0.202700
     16 C2           2.3280    -2.1660    -0.4470 c3         1 2F0      -0.104600
     17 C3           1.9610    -0.7810    -2.4960 c3         1 2F0      -0.104600
     18 C12          3.1790     0.2270    -0.6000 ca         1 2F0      -0.112300
     19 C17          4.3810    -0.1900    -0.0510 ca         1 2F0      -0.082000
     20 C16          5.4130     0.7130     0.2310 ca         1 2F0      -0.132900
     21 C18          6.6870     0.2480     0.8290 ce         1 2F0       0.429900
     22 N4           6.6750    -0.9320     1.3100 n2         1 2F0      -0.443200
     23 O2           7.8570    -1.3340     1.8530 oh         1 2F0      -0.369500
     24 C19          7.8630     1.1770     0.8350 c3         1 2F0      -0.158400
     25 C15          5.2170     2.0620    -0.0510 ca         1 2F0      -0.104000
     26 C14          4.0150     2.4920    -0.5970 ca         1 2F0      -0.138000
     27 C13          3.0050     1.5870    -0.8710 ca         1 2F0      -0.111000
     28 H1          -5.9740     3.9430     0.7760 hn         1 2F0       0.316500
     29 H2          -4.9400     3.1210    -0.3280 hn         1 2F0       0.316500
     30 H3          -3.0490     1.8430     0.8620 ha         1 2F0       0.132000
     31 H4          -5.1900    -2.4290    -0.2990 ha         1 2F0       0.152000
     32 H5          -2.7690    -2.2500    -0.3890 ha         1 2F0       0.168000
     33 H6          -1.0320     0.8560     0.6860 hn         1 2F0       0.311500
     34 H7           1.0020     0.3970     0.4440 hn         1 2F0       0.309500
     35 H8           2.4560    -2.1820     0.6360 hc         1 2F0       0.051200
     36 H9           1.4890    -2.8120    -0.7000 hc         1 2F0       0.051200
     37 H10          3.2200    -2.5960    -0.9050 hc         1 2F0       0.051200
     38 H11          2.9330    -1.0430    -2.9160 hc         1 2F0       0.051200
     39 H12          1.2370    -1.5180    -2.8340 hc         1 2F0       0.051200
     40 H13          1.6760     0.1930    -2.8940 hc         1 2F0       0.051200
     41 H14          4.5480    -1.2350     0.1650 ha         1 2F0       0.153000
     42 H15          7.6770    -2.2280     2.1620 ho         1 2F0       0.431000
     43 H16          7.7030     1.9910     1.5450 hc         1 2F0       0.057033
     44 H17          8.7880     0.6780     1.1060 hc         1 2F0       0.057033
     45 H18          7.9960     1.6300    -0.1480 hc         1 2F0       0.057033
     46 H19          5.9900     2.7900     0.1540 ha         1 2F0       0.135000
     47 H20          3.8680     3.5430    -0.8100 ha         1 2F0       0.135000
     48 H21          2.0780     1.9430    -1.3020 ha         1 2F0       0.137000
@<TRIPOS>BOND
     1     1     2 2   
     2     2     3 1   
     3     2     4 1   
     4     3    28 1   
     5     3    29 1   
     6     4     5 ar  
     7     4     6 ar  
     8     5    10 ar  
     9     5    30 1   
    10     6     7 1   
    11     6     8 ar  
    12     8     9 ar  
    13     8    31 1   
    14     9    10 ar  
    15     9    32 1   
    16    10    11 1   
    17    11    12 1   
    18    11    33 1   
    19    12    13 2   
    20    12    14 1   
    21    14    15 1   
    22    14    34 1   
    23    15    16 1   
    24    15    17 1   
    25    15    18 1   
    26    16    35 1   
    27    16    36 1   
    28    16    37 1   
    29    17    38 1   
    30    17    39 1   
    31    17    40 1   
    32    18    19 ar  
    33    18    27 ar  
    34    19    20 ar  
    35    19    41 1   
    36    20    21 1   
    37    20    25 ar  
    38    21    22 2   
    39    21    24 1   
    40    22    23 1   
    41    23    42 1   
    42    24    43 1   
    43    24    44 1   
    44    24    45 1   
    45    25    26 ar  
    46    25    46 1   
    47    26    27 ar  
    48    26    47 1   
    49    27    48 1   
@<TRIPOS>SUBSTRUCTURE
     1 2F0         1 TEMP              0 ****  ****    0 ROOT
