@<TRIPOS>MOLECULE
2F0
   48    49     1     0     0
SMALL
No Charge or Current Charge


@<TRIPOS>ATOM
      1 O1          -6.6710     1.8220     2.0940 o          1 2F0      -0.577100
      2 C11         -5.5590     1.9070     1.6010 c          1 2F0       0.620700
      3 N3          -4.8600     3.0460     1.8070 nt         1 2F0      -0.606000
      4 C7          -4.8790     0.7950     0.8150 ca         1 2F0      -0.117600
      5 C6          -3.4680     0.8160     0.6380 ca         1 2F0      -0.151000
      6 C8          -5.6030    -0.2860     0.2450 ca         1 2F0       0.129000
      7 Cl1         -7.3620    -0.4350     0.3310 cl         1 2F0      -0.179000
      8 C9          -4.9280    -1.2920    -0.4660 ca         1 2F0      -0.085000
      9 C10         -3.5360    -1.2530    -0.6260 ca         1 2F0      -0.104000
     10 C5          -2.7920    -0.1930    -0.0730 ca         1 2F0      -0.004000
     11 N2          -1.3790    -0.0810    -0.1860 ns         1 2F0      -0.169000
     12 C4          -0.4260    -0.8720    -0.8080 c          1 2F0       0.662100
     13 O           -0.6670    -1.8990    -1.4250 o          1 2F0      -0.621100
     14 N1           0.8430    -0.3580    -0.6470 ns         1 2F0      -0.522900
     15 C1           2.1070    -0.9080    -1.1550 c3         1 2F0       0.202700
     16 C2           2.3640    -2.2860    -0.4860 c3         1 2F0      -0.104600
     17 C3           2.0560    -1.0940    -2.6950 c3         1 2F0      -0.104600
     18 C12          3.1980     0.1410    -0.8230 ca         1 2F0      -0.112300
     19 C17          4.3380    -0.1480    -0.0300 ca         1 2F0      -0.064000
     20 C16          5.3200     0.8340     0.2400 ca         1 2F0      -0.132900
     21 C18          6.5000     0.5210     1.1180 ce         1 2F0       0.429900
     22 N4           6.3650    -0.3860     2.0500 n2         1 2F0      -0.344700
     23 O2           7.4040    -0.4740     3.0030 oh         1 2F0      -0.507000
     24 C19          7.8390     1.1630     0.7660 c3         1 2F0      -0.158400
     25 C15          5.1280     2.1410    -0.2560 ca         1 2F0      -0.086000
     26 C14          4.0060     2.4450    -1.0370 ca         1 2F0      -0.120000
     27 C13          3.0530     1.4560    -1.3220 ca         1 2F0      -0.093000
     28 H1          -5.2840     3.7930     2.3370 hn         1 2F0       0.316500
     29 H2          -3.9420     3.1580     1.4070 hn         1 2F0       0.316500
     30 H3          -2.8730     1.6150     1.0720 ha         1 2F0       0.114000
     31 H4          -5.4940    -2.1110    -0.9030 ha         1 2F0       0.134000
     32 H5          -3.0590    -2.0540    -1.1830 ha         1 2F0       0.150000
     33 H6          -1.0010     0.7340     0.2780 hn         1 2F0       0.145000
     34 H7           0.9100     0.4940    -0.1070 hn         1 2F0       0.309500
     35 H8           2.3840    -2.1950     0.6060 hc         1 2F0       0.051200
     36 H9           1.5820    -3.0100    -0.7430 hc         1 2F0       0.051200
     37 H10          3.3170    -2.7130    -0.8220 hc         1 2F0       0.051200
     38 H11          3.0540    -1.3320    -3.0820 hc         1 2F0       0.051200
     39 H12          1.3890    -1.9130    -2.9840 hc         1 2F0       0.051200
     40 H13          1.7070    -0.1850    -3.1970 hc         1 2F0       0.051200
     41 H14          4.4880    -1.1440     0.3770 ha         1 2F0       0.135000
     42 H15          7.1330    -1.2000     3.6170 ho         1 2F0       0.470000
     43 H16          8.1320     1.9000     1.5230 hc         1 2F0       0.057033
     44 H17          8.6330     0.4090     0.7060 hc         1 2F0       0.057033
     45 H18          7.8140     1.6700    -0.2040 hc         1 2F0       0.057033
     46 H19          5.8420     2.9310    -0.0300 ha         1 2F0       0.117000
     47 H20          3.8690     3.4550    -1.4190 ha         1 2F0       0.117000
     48 H21          2.1890     1.7240    -1.9270 ha         1 2F0       0.119000
@<TRIPOS>BOND
     1     1     2 2   
     2     2     3 1   
     3     2     4 1   
     4     3    28 1   
     5     3    29 1   
     6     4     5 ar  
     7     4     6 ar  
     8     5    10 ar  
     9     5    30 1   
    10     6     7 1   
    11     6     8 ar  
    12     8     9 ar  
    13     8    31 1   
    14     9    10 ar  
    15     9    32 1   
    16    10    11 1   
    17    11    12 1   
    18    11    33 1   
    19    12    13 2   
    20    12    14 1   
    21    14    15 1   
    22    14    34 1   
    23    15    16 1   
    24    15    17 1   
    25    15    18 1   
    26    16    35 1   
    27    16    36 1   
    28    16    37 1   
    29    17    38 1   
    30    17    39 1   
    31    17    40 1   
    32    18    19 ar  
    33    18    27 ar  
    34    19    20 ar  
    35    19    41 1   
    36    20    21 1   
    37    20    25 ar  
    38    21    22 2   
    39    21    24 1   
    40    22    23 1   
    41    23    42 1   
    42    24    43 1   
    43    24    44 1   
    44    24    45 1   
    45    25    26 ar  
    46    25    46 1   
    47    26    27 ar  
    48    26    47 1   
    49    27    48 1   
@<TRIPOS>SUBSTRUCTURE
     1 2F0         1 TEMP              0 ****  ****    0 ROOT
