@<TRIPOS>MOLECULE
2F1
   44    45     1     0     0
SMALL
No Charge or Current Charge


@<TRIPOS>ATOM
      1 O            0.4050    -1.3510    -1.2370 o          1 2F1      -0.621100
      2 C           -0.0390    -0.4380    -0.5560 c          1 2F1       0.664100
      3 N1           0.7290     0.4430     0.1870 ns         1 2F1      -0.167000
      4 C4           2.1320     0.5620     0.3810 ca         1 2F1       0.014000
      5 C5           2.5860     1.5960     1.2230 ca         1 2F1      -0.157500
      6 C6           3.9590     1.7780     1.4640 ca         1 2F1      -0.054500
      7 C9           3.0830    -0.2940    -0.2210 ca         1 2F1      -0.157500
      8 C8           4.4570    -0.1130     0.0190 ca         1 2F1      -0.054500
      9 C7           4.8930     0.9220     0.8610 ca         1 2F1      -0.051900
     10 Br1          6.7620     1.1670     1.1860 br         1 2F1      -0.102100
     11 N2          -1.3850    -0.1610    -0.4360 ns         1 2F1      -0.524900
     12 C12         -2.5080    -0.8680    -1.0650 c3         1 2F1       0.202700
     13 C23         -2.3530    -0.9000    -2.6090 c3         1 2F1      -0.103600
     14 C22         -2.5550    -2.3250    -0.5310 c3         1 2F1      -0.103600
     15 C13         -3.7800    -0.0540    -0.7170 ca         1 2F1      -0.106300
     16 C14         -3.8470     1.3070    -1.0980 ca         1 2F1      -0.103000
     17 C15         -4.9750     2.0870    -0.7990 ca         1 2F1      -0.115000
     18 C16         -6.0590     1.5240    -0.1120 ca         1 2F1      -0.095000
     19 C17         -6.0240     0.1740     0.2830 ca         1 2F1      -0.048800
     20 C18         -4.8860    -0.6040    -0.0190 ca         1 2F1      -0.089000
     21 C19         -7.1790    -0.4250     1.0170 ce         1 2F1      -0.062400
     22 C20         -7.6080    -1.6790     0.7570 c2         1 2F1      -0.308000
     23 C21         -7.8140     0.4020     2.1220 c3         1 2F1      -0.054900
     24 H1           0.1930     1.1360     0.6900 hn         1 2F1       0.145000
     25 H2           1.8700     2.2660     1.6960 ha         1 2F1       0.130500
     26 H3           4.2960     2.5810     2.1160 ha         1 2F1       0.128500
     27 H4           2.7810    -1.1040    -0.8770 ha         1 2F1       0.130500
     28 H5           5.1820    -0.7760    -0.4480 ha         1 2F1       0.128500
     29 H6          -1.6240     0.6160     0.1640 hn         1 2F1       0.309500
     30 H7          -2.1440     0.0980    -3.0120 hc         1 2F1       0.050033
     31 H8          -1.5400    -1.5640    -2.9220 hc         1 2F1       0.050033
     32 H9          -3.2740    -1.2670    -3.0760 hc         1 2F1       0.050033
     33 H10         -3.4060    -2.8710    -0.9560 hc         1 2F1       0.050033
     34 H11         -1.6510    -2.8820    -0.8000 hc         1 2F1       0.050033
     35 H12         -2.6390    -2.3400     0.5630 hc         1 2F1       0.050033
     36 H13         -3.0190     1.7710    -1.6280 ha         1 2F1       0.118000
     37 H14         -5.0080     3.1310    -1.1020 ha         1 2F1       0.115000
     38 H15         -6.9300     2.1380     0.1070 ha         1 2F1       0.116000
     39 H16         -4.8790    -1.6370     0.3110 ha         1 2F1       0.118000
     40 H17         -7.1580    -2.2940    -0.0220 ha         1 2F1       0.166000
     41 H18         -8.4350    -2.1270     1.3080 ha         1 2F1       0.166000
     42 H19         -8.6400     1.0100     1.7340 hc         1 2F1       0.042033
     43 H20         -8.2170    -0.2330     2.9200 hc         1 2F1       0.042033
     44 H21         -7.0880     1.0810     2.5840 hc         1 2F1       0.042033
@<TRIPOS>BOND
     1     1     2 2   
     2     2     3 1   
     3     2    11 1   
     4     3     4 1   
     5     3    24 1   
     6     4     5 ar  
     7     4     7 ar  
     8     5     6 ar  
     9     5    25 1   
    10     6     9 ar  
    11     6    26 1   
    12     7     8 ar  
    13     7    27 1   
    14     8     9 ar  
    15     8    28 1   
    16     9    10 1   
    17    11    12 1   
    18    11    29 1   
    19    12    13 1   
    20    12    14 1   
    21    12    15 1   
    22    13    30 1   
    23    13    31 1   
    24    13    32 1   
    25    14    33 1   
    26    14    34 1   
    27    14    35 1   
    28    15    16 ar  
    29    15    20 ar  
    30    16    17 ar  
    31    16    36 1   
    32    17    18 ar  
    33    17    37 1   
    34    18    19 ar  
    35    18    38 1   
    36    19    20 ar  
    37    19    21 1   
    38    20    39 1   
    39    21    22 2   
    40    21    23 1   
    41    22    40 1   
    42    22    41 1   
    43    23    42 1   
    44    23    43 1   
    45    23    44 1   
@<TRIPOS>SUBSTRUCTURE
     1 2F1         1 TEMP              0 ****  ****    0 ROOT
