@<TRIPOS>MOLECULE
2F1
   44    45     1     0     0
SMALL
bcc


@<TRIPOS>ATOM
      1 O            0.3920    -1.1240    -1.2120 o          1 2F1      -0.621100
      2 C           -0.0510    -0.2800    -0.4490 c          1 2F1       0.798100
      3 N1           0.7560     0.5360     0.3170 ns         1 2F1      -0.493100
      4 C4           2.1450     0.5650     0.3580 ca         1 2F1       0.106600
      5 C5           2.7390     1.7000     0.9200 ca         1 2F1      -0.175500
      6 C6           4.1130     1.8130     1.0330 ca         1 2F1      -0.072500
      7 C9           2.9750    -0.4670    -0.0860 ca         1 2F1      -0.175500
      8 C8           4.3540    -0.3520     0.0210 ca         1 2F1      -0.072500
      9 C7           4.9210     0.7830     0.5760 ca         1 2F1      -0.051900
     10 BR1          6.7990     0.9280     0.7140 br         1 2F1      -0.102100
     11 N2          -1.3700    -0.0270    -0.2660 ns         1 2F1      -0.591900
     12 C12         -2.4740    -0.7620    -0.8950 c3         1 2F1       0.202700
     13 C23         -2.3520    -0.7570    -2.4260 c3         1 2F1      -0.103600
     14 C22         -2.5060    -2.2050    -0.3920 c3         1 2F1      -0.103600
     15 C13         -3.7400     0.0170    -0.5400 ca         1 2F1      -0.106300
     16 C14         -3.7960     1.3870    -0.8120 ca         1 2F1      -0.121000
     17 C15         -4.9370     2.1130    -0.5190 ca         1 2F1      -0.133000
     18 C16         -6.0450     1.4900     0.0400 ca         1 2F1      -0.113000
     19 C17         -6.0250     0.1230     0.3050 ca         1 2F1      -0.048800
     20 C18         -4.8540    -0.5900     0.0210 ca         1 2F1      -0.107000
     21 C19         -7.2060    -0.5570     0.8850 ce         1 2F1      -0.062400
     22 C20         -7.4500    -1.8510     0.6620 c2         1 2F1      -0.208000
     23 C21         -8.1380     0.2690     1.7250 c3         1 2F1      -0.054900
     24 H1           0.3070     1.3040     0.7920 hn         1 2F1       0.311500
     25 H2           2.1180     2.5130     1.2770 ha         1 2F1       0.148500
     26 H3           4.5350     2.7070     1.4720 ha         1 2F1       0.146500
     27 H4           2.5660    -1.3670    -0.5140 ha         1 2F1       0.148500
     28 H5           4.9710    -1.1670    -0.3320 ha         1 2F1       0.146500
     29 H6          -1.6280     0.5610     0.5110 hn         1 2F1       0.309500
     30 H7          -2.2080     0.2550    -2.8070 hc         1 2F1       0.050033
     31 H8          -1.5220    -1.3720    -2.7650 hc         1 2F1       0.050033
     32 H9          -3.2690    -1.1530    -2.8640 hc         1 2F1       0.050033
     33 H10         -3.3120    -2.7700    -0.8600 hc         1 2F1       0.050033
     34 H11         -1.5710    -2.7030    -0.6440 hc         1 2F1       0.050033
     35 H12         -2.6360    -2.2520     0.6900 hc         1 2F1       0.050033
     36 H13         -2.9420     1.8920    -1.2460 ha         1 2F1       0.136000
     37 H14         -4.9680     3.1750    -0.7290 ha         1 2F1       0.133000
     38 H15         -6.9250     2.0810     0.2570 ha         1 2F1       0.134000
     39 H16         -4.8210    -1.6400     0.2740 ha         1 2F1       0.136000
     40 H17         -6.8240    -2.4610     0.0230 ha         1 2F1       0.116000
     41 H18         -8.3050    -2.3440     1.1050 ha         1 2F1       0.116000
     42 H19         -8.6600     1.0180     1.1250 hc         1 2F1       0.042033
     43 H20         -8.8950    -0.3550     2.1970 hc         1 2F1       0.042033
     44 H21         -7.5990     0.8080     2.5060 hc         1 2F1       0.042033
@<TRIPOS>BOND
     1     1     2 2   
     2     2     3 1   
     3     2    11 1   
     4     3     4 1   
     5     3    24 1   
     6     4     5 ar  
     7     4     7 ar  
     8     5     6 ar  
     9     5    25 1   
    10     6     9 ar  
    11     6    26 1   
    12     7     8 ar  
    13     7    27 1   
    14     8     9 ar  
    15     8    28 1   
    16     9    10 1   
    17    11    12 1   
    18    11    29 1   
    19    12    13 1   
    20    12    14 1   
    21    12    15 1   
    22    13    30 1   
    23    13    31 1   
    24    13    32 1   
    25    14    33 1   
    26    14    34 1   
    27    14    35 1   
    28    15    16 ar  
    29    15    20 ar  
    30    16    17 ar  
    31    16    36 1   
    32    17    18 ar  
    33    17    37 1   
    34    18    19 ar  
    35    18    38 1   
    36    19    20 ar  
    37    19    21 1   
    38    20    39 1   
    39    21    22 2   
    40    21    23 1   
    41    22    40 1   
    42    22    41 1   
    43    23    42 1   
    44    23    43 1   
    45    23    44 1   
@<TRIPOS>SUBSTRUCTURE
     1 2F1         1 TEMP              0 ****  ****    0 ROOT
