@<TRIPOS>MOLECULE
2F2
    9     8     1     0     0
SMALL
bcc


@<TRIPOS>ATOM
      1 C1           1.1550    -0.2100     0.0180 c3         1 2F2       0.119700
      2 O           -0.0080     0.5730    -0.0490 os         1 2F2      -0.402600
      3 C           -1.1740    -0.2090    -0.0210 c3         1 2F2       0.119700
      4 H1           1.1990    -0.8050     0.9390 h1         1 2F2       0.027533
      5 H2           1.2360    -0.9010    -0.8300 h1         1 2F2       0.027533
      6 H3           2.0160     0.4570     0.0010 h1         1 2F2       0.027533
      7 H4          -1.2280    -0.9000    -0.8710 h1         1 2F2       0.027533
      8 H5          -1.2490    -0.8040     0.8980 h1         1 2F2       0.027533
      9 H6          -2.0330     0.4600    -0.0670 h1         1 2F2       0.027533
@<TRIPOS>BOND
     1     1     2 1   
     2     1     4 1   
     3     1     5 1   
     4     1     6 1   
     5     2     3 1   
     6     3     7 1   
     7     3     8 1   
     8     3     9 1   
@<TRIPOS>SUBSTRUCTURE
     1 2F2         1 TEMP              0 ****  ****    0 ROOT
