@<TRIPOS>MOLECULE
2F2
    9     8     1     0     0
SMALL
No Charge or Current Charge


@<TRIPOS>ATOM
      1 C1           1.1990    -0.2090     0.0190 c3         1 2F2       0.142900
      2 O           -0.0080     0.5690    -0.0430 os         1 2F2      -0.449000
      3 C           -1.2180    -0.2080    -0.0210 c3         1 2F2       0.142900
      4 H1           1.2360    -0.8000     0.9440 h1         1 2F2       0.027533
      5 H2           1.2660    -0.8960    -0.8350 h1         1 2F2       0.027533
      6 H3           2.0780     0.4480    -0.0020 h1         1 2F2       0.027533
      7 H4          -1.2570    -0.8950    -0.8770 h1         1 2F2       0.027533
      8 H5          -1.2870    -0.7980     0.9020 h1         1 2F2       0.027533
      9 H6          -2.0950     0.4500    -0.0710 h1         1 2F2       0.027533
@<TRIPOS>BOND
     1     1     2 1   
     2     1     4 1   
     3     1     5 1   
     4     1     6 1   
     5     2     3 1   
     6     3     7 1   
     7     3     8 1   
     8     3     9 1   
@<TRIPOS>SUBSTRUCTURE
     1 2F2         1 TEMP              0 ****  ****    0 ROOT
