@<TRIPOS>MOLECULE
2F3
   49    53     1     0     0
SMALL
No Charge or Current Charge


@<TRIPOS>ATOM
      1 C1          -4.6200    -1.1740     0.1350 ca         1 2F3       0.275000
      2 C2          -3.4440    -1.1200    -0.6550 ca         1 2F3      -0.075000
      3 C3          -3.4470    -1.6080    -1.9770 ca         1 2F3      -0.074000
      4 C7          -2.2950    -0.0910     1.2170 ca         1 2F3      -0.122300
      5 C8          -2.2700    -0.5720    -0.1100 ca         1 2F3      -0.040000
      6 C9          -3.5120    -0.1870     1.9240 ca         1 2F3       0.476000
      7 C10          3.3650    -1.0550    -0.0900 cc         1 2F3      -0.038200
      8 C11          2.4030     1.7950    -1.3620 ca         1 2F3      -0.051000
      9 C12          1.7850     3.0080    -1.7390 ca         1 2F3      -0.159300
     10 C13          1.7540     0.9630    -0.4300 ca         1 2F3      -0.086800
     11 C14          0.5860     1.3460     0.1710 ca         1 2F3      -0.055200
     12 C15          1.1230    -0.6660     1.0580 cd         1 2F3      -0.032300
     13 C16          2.1500    -0.2960     0.1630 cc         1 2F3      -0.135200
     14 C19          0.9140    -2.0350     1.6720 c          1 2F3       0.732200
     15 C20         -1.0620     0.5250     1.8900 c3         1 2F3       0.119900
     16 C21          4.1160    -1.7340     1.0170 c          1 2F3       0.567200
     17 C22          5.7180    -2.4780    -0.6860 cc         1 2F3      -0.062400
     18 C24          3.8550    -1.0730    -1.3910 cd         1 2F3      -0.141000
     19 C4          -4.6200    -2.1550    -2.5210 ca         1 2F3      -0.122000
     20 C5          -5.7900    -2.2150    -1.7480 ca         1 2F3      -0.111000
     21 C6          -5.7850    -1.7260    -0.4290 ca         1 2F3      -0.085000
     22 N1          -4.6440    -0.7110     1.4050 nb         1 2F3      -0.676000
     23 N2           0.2010     0.4190     1.1280 na         1 2F3      -0.068700
     24 C17          0.5480     3.3670    -1.1530 ca         1 2F3       0.150000
     25 C18         -0.0560     2.5450    -0.1850 ca         1 2F3      -0.161000
     26 O1           0.0430    -2.1730     2.5210 o          1 2F3      -0.694500
     27 N3           5.2350    -2.4200     0.6070 ns         1 2F3      -0.371100
     28 C23          5.0580    -1.8090    -1.6930 cd         1 2F3      -0.287000
     29 O2           3.8550    -1.6490     2.2110 o          1 2F3      -0.536000
     30 O3           1.5130    -3.0020     1.2200 o          1 2F3      -0.694500
     31 F1          -0.0570     4.5250    -1.5010 f          1 2F3      -0.205000
     32 H1          -2.5440    -1.5650    -2.5820 ha         1 2F3       0.123000
     33 H2          -1.3670    -0.5250    -0.7140 ha         1 2F3       0.150000
     34 H4           3.3720     1.5330    -1.7760 ha         1 2F3       0.109000
     35 H5          -1.2600     1.5840     2.0920 h1         1 2F3       0.098700
     36 H6          -0.9120     0.0610     2.8720 h1         1 2F3       0.098700
     37 H7           6.6240    -3.0690    -0.7930 h4         1 2F3       0.177000
     38 H8           3.3070    -0.5980    -2.1980 ha         1 2F3       0.177000
     39 H9          -4.6220    -2.5320    -3.5420 ha         1 2F3       0.107000
     40 H10         -6.7000    -2.6380    -2.1680 ha         1 2F3       0.105000
     41 H11         -6.6950    -1.7750     0.1630 ha         1 2F3       0.124000
     42 H12         -0.9930     2.8500     0.2710 ha         1 2F3       0.124000
     43 H14          5.7430    -2.8860     1.3500 hn         1 2F3       0.310500
     44 H15          5.4350    -1.8510    -2.7130 ha         1 2F3       0.179000
     45 H16          1.7980     4.0950    -3.6210 hc         1 2F3       0.031700
     46 H17          2.6850     4.9000    -2.3150 hc         1 2F3       0.031700
     47 H18          3.3910     3.5000    -3.1350 hc         1 2F3       0.031700
     48 Cl1         -3.6570     0.3980     3.5800 cl         1 2F3      -0.189000
     49 C25          2.4530     3.9240    -2.7580 c3         1 2F3      -0.024800
@<TRIPOS>BOND
     1     1     2 ar  
     2     1    21 ar  
     3     1    22 ar  
     4     2     3 ar  
     5     2     5 ar  
     6     3    19 ar  
     7     3    32 1   
     8     4     5 ar  
     9     4     6 ar  
    10     4    15 1   
    11     5    33 1   
    12     6    22 ar  
    13     6    48 1   
    14     7    13 1   
    15     7    16 1   
    16     7    18 2   
    17     8     9 ar  
    18     8    10 ar  
    19     8    34 1   
    20     9    24 ar  
    21     9    49 1   
    22    10    11 ar  
    23    10    13 1   
    24    11    23 1   
    25    11    25 ar  
    26    12    13 2   
    27    12    14 1   
    28    12    23 1   
    29    14    26 1   
    30    14    30 1   
    31    15    23 1   
    32    15    35 1   
    33    15    36 1   
    34    16    27 1   
    35    16    29 2   
    36    17    27 1   
    37    17    28 2   
    38    17    37 1   
    39    18    28 1   
    40    18    38 1   
    41    19    20 ar  
    42    19    39 1   
    43    20    21 ar  
    44    20    40 1   
    45    21    41 1   
    46    24    25 ar  
    47    24    31 1   
    48    25    42 1   
    49    27    43 1   
    50    28    44 1   
    51    45    49 1   
    52    46    49 1   
    53    47    49 1   
@<TRIPOS>SUBSTRUCTURE
     1 2F3         1 TEMP              0 ****  ****    0 ROOT
