@<TRIPOS>MOLECULE
2F3
   49    53     1     0     0
SMALL
bcc


@<TRIPOS>ATOM
      1 C1          -4.4330    -1.0830    -0.0930 ca         1 2F3       0.405600
      2 C2          -3.1660    -1.1840    -0.7110 ca         1 2F3      -0.140300
      3 C3          -3.0610    -1.7940    -1.9800 ca         1 2F3      -0.092000
      4 C7          -2.2020    -0.0810     1.2100 ca         1 2F3      -0.187600
      5 C8          -2.0530    -0.6630    -0.0180 ca         1 2F3      -0.058000
      6 C9          -3.5260    -0.0550     1.7180 ca         1 2F3       0.541300
      7 C10          3.1710    -1.1110    -0.1640 cc         1 2F3      -0.038200
      8 C11          2.2810     1.8120    -1.2680 ca         1 2F3      -0.069000
      9 C12          1.7060     3.0290    -1.5900 ca         1 2F3      -0.159300
     10 C13          1.6960     0.9860    -0.3030 ca         1 2F3      -0.086800
     11 C14          0.5330     1.4160     0.3590 ca         1 2F3      -0.055200
     12 C15          1.0850    -0.5890     1.1920 cd         1 2F3      -0.032300
     13 C16          2.0240    -0.2990     0.2350 cc         1 2F3      -0.135200
     14 C19          1.0060    -1.8390     2.0370 c          1 2F3       0.942800
     15 C20         -1.0540     0.4890     2.0020 c3         1 2F3       0.090600
     16 C21          4.1330    -1.5120     0.8480 c          1 2F3       0.709700
     17 C22          5.3730    -2.6210    -0.9290 cc         1 2F3      -0.012400
     18 C24          3.3850    -1.4450    -1.4700 cd         1 2F3      -0.091000
     19 C4          -4.1800    -2.2760    -2.6050 ca         1 2F3      -0.140000
     20 C5          -5.4440    -2.1680    -1.9890 ca         1 2F3      -0.129000
     21 C6          -5.5730    -1.5840    -0.7560 ca         1 2F3      -0.168300
     22 N1          -4.5750    -0.5110     1.1280 nb         1 2F3      -0.676000
     23 N2           0.1910     0.4640     1.2790 na         1 2F3      -0.039400
     24 C17          0.5290     3.3890    -0.9160 ca         1 2F3       0.114900
     25 C18         -0.0840     2.6270     0.0490 ca         1 2F3      -0.179000
     26 O1           0.5070    -1.7270     3.1750 o          1 2F3      -0.799800
     27 N3           5.1750    -2.2770     0.3650 ns         1 2F3      -0.438100
     28 C23          4.5010    -2.2130    -1.8820 cd         1 2F3      -0.237000
     29 O2           4.0910    -1.2110     2.0370 o          1 2F3      -0.611500
     30 O3           1.4620    -2.8640     1.5090 o          1 2F3      -0.799800
     31 F1          -0.0350     4.5700    -1.2430 f          1 2F3      -0.169900
     32 H1          -2.0880    -1.8770    -2.4480 ha         1 2F3       0.141000
     33 H2          -1.0750    -0.7370    -0.4790 ha         1 2F3       0.168000
     34 H4           3.1910     1.5050    -1.7710 ha         1 2F3       0.127000
     35 H5          -1.2710     1.5220     2.2790 h1         1 2F3       0.098700
     36 H6          -0.9260    -0.0620     2.9310 h1         1 2F3       0.098700
     37 H7           6.2490    -3.2180    -1.1320 h4         1 2F3       0.127000
     38 H8           2.6660    -1.1280    -2.2170 ha         1 2F3       0.127000
     39 H9          -4.0980    -2.7460    -3.5760 ha         1 2F3       0.125000
     40 H10         -6.3190    -2.5500    -2.4970 ha         1 2F3       0.123000
     41 H11         -6.5380    -1.4960    -0.2750 ha         1 2F3       0.142000
     42 H12         -0.9920     2.9700     0.5290 ha         1 2F3       0.142000
     43 H14          5.8560    -2.5790     1.0480 hn         1 2F3       0.310500
     44 H15          4.6520    -2.4790    -2.9170 ha         1 2F3       0.129000
     45 H16          1.6310     4.0880    -3.4700 hc         1 2F3       0.031700
     46 H17          2.5220     4.9290    -2.2120 hc         1 2F3       0.031700
     47 H18          3.2320     3.5290    -3.0020 hc         1 2F3       0.031700
     48 CL1         -3.7760     0.6580     3.2860 cl         1 2F3      -0.189000
     49 C25          2.3000     3.9430    -2.6210 c3         1 2F3      -0.024800
@<TRIPOS>BOND
     1     1     2 ar  
     2     1    21 ar  
     3     1    22 ar  
     4     2     3 ar  
     5     2     5 ar  
     6     3    19 ar  
     7     3    32 1   
     8     4     5 ar  
     9     4     6 ar  
    10     4    15 1   
    11     5    33 1   
    12     6    22 ar  
    13     6    48 1   
    14     7    13 1   
    15     7    16 1   
    16     7    18 2   
    17     8     9 ar  
    18     8    10 ar  
    19     8    34 1   
    20     9    24 ar  
    21     9    49 1   
    22    10    11 ar  
    23    10    13 1   
    24    11    23 1   
    25    11    25 ar  
    26    12    13 2   
    27    12    14 1   
    28    12    23 1   
    29    14    26 1   
    30    14    30 1   
    31    15    23 1   
    32    15    35 1   
    33    15    36 1   
    34    16    27 1   
    35    16    29 2   
    36    17    27 1   
    37    17    28 2   
    38    17    37 1   
    39    18    28 1   
    40    18    38 1   
    41    19    20 ar  
    42    19    39 1   
    43    20    21 ar  
    44    20    40 1   
    45    21    41 1   
    46    24    25 ar  
    47    24    31 1   
    48    25    42 1   
    49    27    43 1   
    50    28    44 1   
    51    45    49 1   
    52    46    49 1   
    53    47    49 1   
@<TRIPOS>SUBSTRUCTURE
     1 2F3         1 TEMP              0 ****  ****    0 ROOT
