@<TRIPOS>MOLECULE
2F4
   51    55     1     0     0
SMALL
No Charge or Current Charge


@<TRIPOS>ATOM
      1 C01          9.0170     2.2870     0.6570 c3         1 2F4       0.227100
      2 N02          8.1780     2.2200    -0.5470 nu         1 2F4      -0.950100
      3 C03          6.9880     1.5710    -0.6980 ca         1 2F4       0.623900
      4 C04          6.4610     0.6670     0.2310 ca         1 2F4      -0.235000
      5 C05          5.2160     0.0550    -0.0290 cp         1 2F4       0.058000
      6 C06          4.5990     0.4040    -1.2520 ca         1 2F4      -0.204000
      7 C07          5.2170     1.3220    -2.1160 ca         1 2F4       0.386900
      8 N08          6.4040     1.9050    -1.8440 nb         1 2F4      -0.755000
      9 C09          4.6190    -0.9290     0.9250 cp         1 2F4      -0.109000
     10 C10          5.4290    -1.9300     1.5110 ca         1 2F4      -0.039000
     11 C11          4.8470    -2.8450     2.4010 ca         1 2F4      -0.202000
     12 C12          3.4810    -2.7420     2.6960 ca         1 2F4       0.380900
     13 N13          2.6860    -1.7920     2.1620 nb         1 2F4      -0.740000
     14 C14          3.2430    -0.9160     1.2930 ca         1 2F4       0.596300
     15 O15          2.4580     0.0970     0.7880 os         1 2F4      -0.359400
     16 C16          1.1790    -0.1040     0.3180 ca         1 2F4       0.087100
     17 C17          0.2350     0.9250     0.4670 ca         1 2F4      -0.076500
     18 C18         -1.0720     0.7600    -0.0260 ca         1 2F4      -0.144500
     19 C19         -1.4460    -0.4320    -0.6730 ca         1 2F4       0.315000
     20 N20         -2.7290    -0.6140    -1.1860 nu         1 2F4      -0.905200
     21 C21         -3.9560    -0.2320    -0.7490 cc         1 2F4       0.673700
     22 N22         -4.1810     0.4310     0.3890 nd         1 2F4      -0.628100
     23 C23         -5.5680     0.5630     0.4140 ca         1 2F4       0.111400
     24 C24         -6.3600     1.1880     1.3910 ca         1 2F4      -0.052000
     25 C25         -7.7630     1.2030     1.2130 ca         1 2F4      -0.141000
     26 C26         -8.3440     0.5990     0.0720 ca         1 2F4       0.137000
     27 F27         -9.6870     0.6220    -0.0830 f          1 2F4      -0.164000
     28 C28         -7.5260    -0.0250    -0.8960 ca         1 2F4       0.128000
     29 F29         -8.0550    -0.6110    -1.9960 f          1 2F4      -0.163000
     30 C30         -6.1400    -0.0180    -0.6830 ca         1 2F4      -0.101200
     31 N31         -5.1180    -0.5320    -1.4280 na         1 2F4      -0.343600
     32 C32         -0.4910    -1.4480    -0.8450 ca         1 2F4      -0.144500
     33 C33          0.8190    -1.2900    -0.3540 ca         1 2F4      -0.076500
     34 H1           8.4580     2.7320     1.4910 h1         1 2F4       0.034367
     35 H2           9.3470     1.2820     0.9530 h1         1 2F4       0.034367
     36 H3           9.9080     2.9020     0.4690 h1         1 2F4       0.034367
     37 H4           8.3620     2.8730    -1.3060 hn         1 2F4       0.505000
     38 H5           7.0000     0.4460     1.1450 ha         1 2F4       0.120000
     39 H6           3.6520    -0.0390    -1.5430 ha         1 2F4       0.129000
     40 H7           4.7480     1.5950    -3.0600 h4         1 2F4       0.014100
     41 H8           6.4870    -2.0010     1.2680 ha         1 2F4       0.125000
     42 H9           5.4440    -3.6270     2.8610 ha         1 2F4       0.129000
     43 H10          3.0090    -3.4390     3.3870 h4         1 2F4       0.022100
     44 H11          0.5180     1.8500     0.9630 ha         1 2F4       0.128000
     45 H12         -1.7890     1.5680     0.0870 ha         1 2F4       0.134500
     46 H13         -2.7960    -1.3240    -1.9090 hn         1 2F4       0.497000
     47 H15         -5.9010     1.6480     2.2630 ha         1 2F4       0.138000
     48 H16         -8.4000     1.6800     1.9530 ha         1 2F4       0.136000
     49 H17         -5.1840    -1.0200    -2.3080 hn         1 2F4       0.365000
     50 H18         -0.7610    -2.3680    -1.3580 ha         1 2F4       0.134500
     51 H19          1.5460    -2.0850    -0.5000 ha         1 2F4       0.128000
@<TRIPOS>BOND
     1     1     2 1   
     2     1    34 1   
     3     1    35 1   
     4     1    36 1   
     5     2     3 1   
     6     2    37 1   
     7     3     4 ar  
     8     3     8 ar  
     9     4     5 ar  
    10     4    38 1   
    11     5     6 ar  
    12     5     9 1   
    13     6     7 ar  
    14     6    39 1   
    15     7     8 ar  
    16     7    40 1   
    17     9    10 ar  
    18     9    14 ar  
    19    10    11 ar  
    20    10    41 1   
    21    11    12 ar  
    22    11    42 1   
    23    12    13 ar  
    24    12    43 1   
    25    13    14 ar  
    26    14    15 1   
    27    15    16 1   
    28    16    17 ar  
    29    16    33 ar  
    30    17    18 ar  
    31    17    44 1   
    32    18    19 ar  
    33    18    45 1   
    34    19    20 1   
    35    19    32 ar  
    36    20    21 1   
    37    20    46 1   
    38    21    22 2   
    39    21    31 1   
    40    22    23 1   
    41    23    24 ar  
    42    23    30 ar  
    43    24    25 ar  
    44    24    47 1   
    45    25    26 ar  
    46    25    48 1   
    47    26    27 1   
    48    26    28 ar  
    49    28    29 1   
    50    28    30 ar  
    51    30    31 1   
    52    31    49 1   
    53    32    33 ar  
    54    32    50 1   
    55    33    51 1   
@<TRIPOS>SUBSTRUCTURE
     1 2F4         1 TEMP              0 ****  ****    0 ROOT
