@<TRIPOS>MOLECULE
2F4
   51    55     1     0     0
SMALL
bcc


@<TRIPOS>ATOM
      1 C01          8.1950     2.7690     1.4140 c3         1 2F4       0.227100
      2 N02          7.8100     2.7220     0.0310 nu         1 2F4      -0.894900
      3 C03          6.9180     1.8500    -0.4850 ca         1 2F4       0.689200
      4 C04          6.2490     0.9110     0.3240 ca         1 2F4      -0.318300
      5 C05          5.3400     0.0440    -0.2570 cp         1 2F4       0.058000
      6 C06          5.1160     0.1320    -1.6350 ca         1 2F4      -0.287300
      7 C07          5.8260     1.0860    -2.3390 ca         1 2F4       0.452200
      8 N08          6.6990     1.9260    -1.8020 nb         1 2F4      -0.755000
      9 C09          4.6740    -0.9710     0.5830 cp         1 2F4      -0.174300
     10 C10          5.4050    -1.7650     1.4540 ca         1 2F4      -0.057000
     11 C11          4.7700    -2.7160     2.2440 ca         1 2F4      -0.285300
     12 C12          3.4000    -2.8310     2.1340 ca         1 2F4       0.446200
     13 N13          2.6730    -2.0700     1.3180 nb         1 2F4      -0.740000
     14 C14          3.2860    -1.1820     0.5750 ca         1 2F4       0.661600
     15 O15          2.5520    -0.3880    -0.2300 os         1 2F4      -0.359400
     16 C16          1.1990    -0.6120    -0.3520 ca         1 2F4       0.087100
     17 C17          0.3160     0.2890     0.2110 ca         1 2F4      -0.094500
     18 C18         -1.0550     0.1350     0.0440 ca         1 2F4      -0.162500
     19 C19         -1.5480    -0.9430    -0.6890 ca         1 2F4       0.176600
     20 N20         -2.9010    -1.1910    -0.9070 nu         1 2F4      -0.711600
     21 C21         -3.9720    -0.4820    -0.4810 cc         1 2F4       0.673700
     22 N22         -3.9690     0.6190     0.2230 nd         1 2F4      -0.628100
     23 C23         -5.2950     0.9420     0.3920 ca         1 2F4       0.111400
     24 C24         -5.8810     2.0110     1.0610 ca         1 2F4      -0.070000
     25 C25         -7.2650     2.0990     1.0790 ca         1 2F4      -0.159000
     26 C26         -8.0420     1.1400     0.4440 ca         1 2F4       0.101900
     27 F27         -9.3800     1.2410     0.4710 f          1 2F4      -0.128900
     28 C28         -7.4780     0.0700    -0.2260 ca         1 2F4       0.092900
     29 F29         -8.2400    -0.8460    -0.8330 f          1 2F4      -0.127900
     30 C30         -6.1020    -0.0170    -0.2440 ca         1 2F4      -0.101200
     31 N31         -5.2300    -0.9160    -0.7950 na         1 2F4      -0.294300
     32 C32         -0.6410    -1.8460    -1.2540 ca         1 2F4      -0.162500
     33 C33          0.7200    -1.6840    -1.0910 ca         1 2F4      -0.094500
     34 H1           7.3590     3.0270     2.0700 h1         1 2F4       0.034367
     35 H2           8.6140     1.8210     1.7610 h1         1 2F4       0.034367
     36 H3           8.9590     3.5320     1.5350 h1         1 2F4       0.034367
     37 H4           8.2540     3.3490    -0.6180 hn         1 2F4       0.449800
     38 H5           6.4310     0.8720     1.3900 ha         1 2F4       0.138000
     39 H6           4.4310    -0.5260    -2.1480 ha         1 2F4       0.147000
     40 H7           5.6820     1.1750    -3.4110 h4         1 2F4       0.014100
     41 H8           6.4810    -1.6490     1.5010 ha         1 2F4       0.143000
     42 H9           5.3290    -3.3480     2.9200 ha         1 2F4       0.147000
     43 H10          2.8530    -3.5580     2.7240 h4         1 2F4       0.022100
     44 H11          0.6900     1.1290     0.7830 ha         1 2F4       0.146000
     45 H12         -1.7280     0.8510     0.4880 ha         1 2F4       0.152500
     46 H13         -3.1060    -2.0200    -1.4430 hn         1 2F4       0.441800
     47 H15         -5.2760     2.7590     1.5550 ha         1 2F4       0.156000
     48 H16         -7.7580     2.9170     1.5870 ha         1 2F4       0.154000
     49 H17         -5.4670    -1.7400    -1.3250 hn         1 2F4       0.314700
     50 H18         -1.0070    -2.6900    -1.8290 ha         1 2F4       0.152500
     51 H19          1.4010    -2.3930    -1.5430 ha         1 2F4       0.146000
@<TRIPOS>BOND
     1     1     2 1   
     2     1    34 1   
     3     1    35 1   
     4     1    36 1   
     5     2     3 1   
     6     2    37 1   
     7     3     4 ar  
     8     3     8 ar  
     9     4     5 ar  
    10     4    38 1   
    11     5     6 ar  
    12     5     9 1   
    13     6     7 ar  
    14     6    39 1   
    15     7     8 ar  
    16     7    40 1   
    17     9    10 ar  
    18     9    14 ar  
    19    10    11 ar  
    20    10    41 1   
    21    11    12 ar  
    22    11    42 1   
    23    12    13 ar  
    24    12    43 1   
    25    13    14 ar  
    26    14    15 1   
    27    15    16 1   
    28    16    17 ar  
    29    16    33 ar  
    30    17    18 ar  
    31    17    44 1   
    32    18    19 ar  
    33    18    45 1   
    34    19    20 1   
    35    19    32 ar  
    36    20    21 1   
    37    20    46 1   
    38    21    22 2   
    39    21    31 1   
    40    22    23 1   
    41    23    24 ar  
    42    23    30 ar  
    43    24    25 ar  
    44    24    47 1   
    45    25    26 ar  
    46    25    48 1   
    47    26    27 1   
    48    26    28 ar  
    49    28    29 1   
    50    28    30 ar  
    51    30    31 1   
    52    31    49 1   
    53    32    33 ar  
    54    32    50 1   
    55    33    51 1   
@<TRIPOS>SUBSTRUCTURE
     1 2F4         1 TEMP              0 ****  ****    0 ROOT
