@<TRIPOS>MOLECULE
2F5
   49    53     1     0     0
SMALL
bcc


@<TRIPOS>ATOM
      1 O01          3.4600    -2.7030    -0.6090 o          1 2F5      -0.530100
      2 C02          3.1350    -1.5710    -0.3070 c          1 2F5       0.540400
      3 C03          4.2060    -0.6010     0.0130 cc         1 2F5       0.331800
      4 N04          5.5030    -0.9310    -0.2190 na         1 2F5      -0.227300
      5 C05          6.2670     0.1100     0.2080 ca         1 2F5      -0.072200
      6 C06          7.6430     0.3320     0.2200 ca         1 2F5      -0.133000
      7 C07          8.0670     1.5340     0.7450 ca         1 2F5      -0.102000
      8 C08          7.1600     2.4900     1.2430 ca         1 2F5      -0.154000
      9 C09          5.8000     2.2680     1.2290 ca         1 2F5      -0.060000
     10 C10          5.3460     1.0540     0.7010 ca         1 2F5       0.055400
     11 N11          4.0730     0.5770     0.5650 nd         1 2F5      -0.543100
     12 C12          1.7130    -1.1690    -0.2280 ca         1 2F5      -0.164600
     13 C13          0.7670    -2.1740    -0.0130 ca         1 2F5      -0.058000
     14 C14         -0.5820    -1.8750     0.0340 ca         1 2F5      -0.144000
     15 C15         -0.9900    -0.5630    -0.1530 ca         1 2F5       0.142100
     16 O16         -2.3260    -0.2670    -0.0390 os         1 2F5      -0.365400
     17 C17         -3.0610    -0.1260    -1.1620 ca         1 2F5       0.519300
     18 N18         -2.5150    -0.3170    -2.3220 nb         1 2F5      -0.697000
     19 C19         -3.2990    -0.2480    -3.4060 ca         1 2F5       0.289900
     20 C20         -4.6430    -0.0090    -3.2770 ca         1 2F5       0.287900
     21 N21         -5.1990     0.2110    -2.0820 nb         1 2F5      -0.693000
     22 C22         -4.4430     0.1810    -1.0060 ca         1 2F5       0.543900
     23 N23         -5.0090     0.3540     0.2380 nh         1 2F5      -0.744300
     24 C24         -4.4900     1.3970     1.1200 c6         1 2F5       0.165300
     25 C25         -4.9420     1.1210     2.5400 c6         1 2F5       0.125400
     26 O26         -6.3460     1.0310     2.6310 os         1 2F5      -0.401600
     27 C27         -6.8450     0.0290     1.7740 c6         1 2F5       0.125400
     28 C28         -6.4570     0.2690     0.3260 c6         1 2F5       0.165300
     29 C29         -0.0720     0.4470    -0.3870 ca         1 2F5      -0.144000
     30 C30          1.2780     0.1440    -0.4160 ca         1 2F5      -0.058000
     31 H1           5.8290    -1.7940    -0.6270 hn         1 2F5       0.324700
     32 H2           8.3430    -0.4000    -0.1610 ha         1 2F5       0.139000
     33 H3           9.1270     1.7520     0.7780 ha         1 2F5       0.133000
     34 H4           7.5450     3.4180     1.6450 ha         1 2F5       0.134000
     35 H5           5.1020     3.0030     1.6100 ha         1 2F5       0.148000
     36 H7           1.0860    -3.1970     0.1320 ha         1 2F5       0.155000
     37 H8          -1.3120    -2.6510     0.2180 ha         1 2F5       0.149000
     38 H9          -2.8350    -0.4130    -4.3690 h4         1 2F5       0.034100
     39 H10         -5.2970     0.0160    -4.1400 h4         1 2F5       0.032100
     40 H11         -3.4040     1.4320     1.0960 h1         1 2F5       0.056450
     41 H12         -4.8570     2.3800     0.7940 h1         1 2F5       0.056450
     42 H13         -4.4700     0.1940     2.8940 h1         1 2F5       0.054700
     43 H14         -4.6220     1.9340     3.1930 h1         1 2F5       0.054700
     44 H15         -6.4800    -0.9600     2.0860 h1         1 2F5       0.054700
     45 H16         -7.9320     0.0300     1.8680 h1         1 2F5       0.054700
     46 H17         -6.9420     1.1790    -0.0510 h1         1 2F5       0.056450
     47 H18         -6.8160    -0.5650    -0.2780 h1         1 2F5       0.056450
     48 H19         -0.4040     1.4660    -0.5400 ha         1 2F5       0.149000
     49 H20          1.9880     0.9370    -0.5950 ha         1 2F5       0.155000
@<TRIPOS>BOND
     1     1     2 2   
     2     2     3 1   
     3     2    12 1   
     4     3     4 1   
     5     3    11 2   
     6     4     5 1   
     7     4    31 1   
     8     5     6 ar  
     9     5    10 ar  
    10     6     7 ar  
    11     6    32 1   
    12     7     8 ar  
    13     7    33 1   
    14     8     9 ar  
    15     8    34 1   
    16     9    10 ar  
    17     9    35 1   
    18    10    11 1   
    19    12    13 ar  
    20    12    30 ar  
    21    13    14 ar  
    22    13    36 1   
    23    14    15 ar  
    24    14    37 1   
    25    15    16 1   
    26    15    29 ar  
    27    16    17 1   
    28    17    18 ar  
    29    17    22 ar  
    30    18    19 ar  
    31    19    20 ar  
    32    19    38 1   
    33    20    21 ar  
    34    20    39 1   
    35    21    22 ar  
    36    22    23 1   
    37    23    24 1   
    38    23    28 1   
    39    24    25 1   
    40    24    40 1   
    41    24    41 1   
    42    25    26 1   
    43    25    42 1   
    44    25    43 1   
    45    26    27 1   
    46    27    28 1   
    47    27    44 1   
    48    27    45 1   
    49    28    46 1   
    50    28    47 1   
    51    29    30 ar  
    52    29    48 1   
    53    30    49 1   
@<TRIPOS>SUBSTRUCTURE
     1 2F5         1 TEMP              0 ****  ****    0 ROOT
