@<TRIPOS>MOLECULE
2F5
   49    53     1     0     0
SMALL
No Charge or Current Charge


@<TRIPOS>ATOM
      1 O01          3.6350    -3.0740    -0.3570 o          1 2F5      -0.530100
      2 C02          3.1750    -1.9460    -0.1800 c          1 2F5       0.540400
      3 C03          4.0720    -0.7690     0.1170 cc         1 2F5       0.331800
      4 N04          5.4730    -0.8320     0.1560 na         1 2F5      -0.277600
      5 C05          5.9420     0.4010     0.4830 ca         1 2F5      -0.072200
      6 C06          7.2560     0.8570     0.6410 ca         1 2F5      -0.115000
      7 C07          7.4350     2.2120     0.9920 ca         1 2F5      -0.084000
      8 C08          6.3120     3.0550     1.1720 ca         1 2F5      -0.136000
      9 C09          5.0030     2.5490     1.0020 ca         1 2F5      -0.042000
     10 C10          4.8530     1.1990     0.6520 ca         1 2F5       0.055400
     11 N11          3.6760     0.4930     0.4370 nd         1 2F5      -0.543100
     12 C12          1.6710    -1.7370    -0.2810 ca         1 2F5      -0.164600
     13 C13          0.8110    -2.7890     0.1070 ca         1 2F5      -0.040000
     14 C14         -0.5840    -2.6460     0.0170 ca         1 2F5      -0.126000
     15 C15         -1.1430    -1.4630    -0.4850 ca         1 2F5       0.142100
     16 O16         -2.5130    -1.3490    -0.5370 os         1 2F5      -0.365400
     17 C17         -3.1710    -0.6210    -1.5100 ca         1 2F5       0.519300
     18 N18         -2.8140    -0.8360    -2.8110 nb         1 2F5      -0.697000
     19 C19         -3.5290    -0.1360    -3.7340 ca         1 2F5       0.289900
     20 C20         -4.5840     0.7480    -3.3790 ca         1 2F5       0.287900
     21 N21         -4.9590     0.9690    -2.0890 nb         1 2F5      -0.693000
     22 C22         -4.2510     0.2870    -1.1470 ca         1 2F5       0.543900
     23 N23         -4.6750     0.5550     0.1900 nh         1 2F5      -0.744300
     24 C24         -3.6800     1.0070     1.2170 c6         1 2F5       0.165300
     25 C25         -4.1740     0.7350     2.6680 c6         1 2F5       0.148600
     26 O26         -5.4930     1.2920     2.8700 os         1 2F5      -0.448000
     27 C27         -6.4770     0.7330     1.9680 c6         1 2F5       0.148600
     28 C28         -6.0800     0.9960     0.4850 c6         1 2F5       0.165300
     29 C29         -0.3000    -0.4100    -0.8860 ca         1 2F5      -0.126000
     30 C30          1.0970    -0.5490    -0.7950 ca         1 2F5      -0.040000
     31 H1           6.0230    -1.6630    -0.0250 hn         1 2F5       0.375000
     32 H2           8.1070     0.1950     0.5000 ha         1 2F5       0.121000
     33 H3           8.4390     2.6090     1.1250 ha         1 2F5       0.115000
     34 H4           6.4560     4.0990     1.4430 ha         1 2F5       0.116000
     35 H5           4.1330     3.1870     1.1380 ha         1 2F5       0.130000
     36 H7           1.2230    -3.7200     0.4940 ha         1 2F5       0.137000
     37 H8          -1.2350    -3.4580     0.3330 ha         1 2F5       0.131000
     38 H9          -3.2610    -0.2870    -4.7780 h4         1 2F5       0.034100
     39 H10         -5.1360     1.2870    -4.1470 h4         1 2F5       0.032100
     40 H11         -2.7110     0.5060     1.0860 h1         1 2F5       0.056450
     41 H12         -3.4980     2.0860     1.1050 h1         1 2F5       0.056450
     42 H13         -4.2050    -0.3480     2.8550 h1         1 2F5       0.054700
     43 H14         -3.4780     1.1850     3.3890 h1         1 2F5       0.054700
     44 H15         -6.5560    -0.3490     2.1460 h1         1 2F5       0.054700
     45 H16         -7.4570     1.1840     2.1770 h1         1 2F5       0.054700
     46 H17         -6.1900     2.0690     0.2740 h1         1 2F5       0.056450
     47 H18         -6.7940     0.4600    -0.1580 h1         1 2F5       0.056450
     48 H19         -0.7170     0.5150    -1.2730 ha         1 2F5       0.131000
     49 H20          1.7190     0.2680    -1.1540 ha         1 2F5       0.137000
@<TRIPOS>BOND
     1     1     2 2   
     2     2     3 1   
     3     2    12 1   
     4     3     4 1   
     5     3    11 2   
     6     4     5 1   
     7     4    31 1   
     8     5     6 ar  
     9     5    10 ar  
    10     6     7 ar  
    11     6    32 1   
    12     7     8 ar  
    13     7    33 1   
    14     8     9 ar  
    15     8    34 1   
    16     9    10 ar  
    17     9    35 1   
    18    10    11 1   
    19    12    13 ar  
    20    12    30 ar  
    21    13    14 ar  
    22    13    36 1   
    23    14    15 ar  
    24    14    37 1   
    25    15    16 1   
    26    15    29 ar  
    27    16    17 1   
    28    17    18 ar  
    29    17    22 ar  
    30    18    19 ar  
    31    19    20 ar  
    32    19    38 1   
    33    20    21 ar  
    34    20    39 1   
    35    21    22 ar  
    36    22    23 1   
    37    23    24 1   
    38    23    28 1   
    39    24    25 1   
    40    24    40 1   
    41    24    41 1   
    42    25    26 1   
    43    25    42 1   
    44    25    43 1   
    45    26    27 1   
    46    27    28 1   
    47    27    44 1   
    48    27    45 1   
    49    28    46 1   
    50    28    47 1   
    51    29    30 ar  
    52    29    48 1   
    53    30    49 1   
@<TRIPOS>SUBSTRUCTURE
     1 2F5         1 TEMP              0 ****  ****    0 ROOT
