@<TRIPOS>MOLECULE
2F6
   22    23     1     0     0
SMALL
bcc


@<TRIPOS>ATOM
      1 N3           2.2670    -0.7980     0.0140 nc         1 2F6      -0.537800
      2 C5           3.6580     1.1630     0.0250 c3         1 2F6       0.047600
      3 C6           1.1630     1.1240     0.0300 cc         1 2F6      -0.121300
      4 C7           0.2140     0.1200     0.0280 cd         1 2F6      -0.305800
      5 C8          -1.2270     0.2920     0.0300 cd         1 2F6       0.419800
      6 C10         -3.2700     1.1180    -0.0610 cc         1 2F6      -0.140300
      7 C1           0.4940    -2.4820     0.0090 c3         1 2F6      -0.116400
      8 C2           0.9740    -1.0730     0.0180 cd         1 2F6       0.355600
      9 N4           2.3630     0.5290     0.0220 na         1 2F6       0.112400
     10 C9          -1.9520     1.4920    -0.1490 cd         1 2F6      -0.313300
     11 N11         -3.2730    -0.2060     0.1530 na         1 2F6      -0.005600
     12 N13         -2.0530    -0.7290     0.2140 nc         1 2F6      -0.524800
     13 H1           4.2270     0.8610     0.9020 h1         1 2F6       0.054700
     14 H2           4.2160     0.8960    -0.8710 h1         1 2F6       0.054700
     15 H3           3.5220     2.2400     0.0480 h1         1 2F6       0.054700
     16 H4           1.0630     2.1970     0.0400 h4         1 2F6       0.169000
     17 H5          -4.1820     1.6870    -0.1380 h4         1 2F6       0.169000
     18 H6          -0.0240    -2.7340     0.9350 hc         1 2F6       0.049700
     19 H7          -0.2140    -2.6560    -0.8020 hc         1 2F6       0.049700
     20 H8           1.3320    -3.1670    -0.1100 hc         1 2F6       0.049700
     21 H9          -1.5670     2.4830    -0.3270 ha         1 2F6       0.158000
     22 H10         -4.0770    -0.8000     0.2730 hn         1 2F6       0.318700
@<TRIPOS>BOND
     1     1     8 2   
     2     1     9 1   
     3     2     9 1   
     4     2    13 1   
     5     2    14 1   
     6     2    15 1   
     7     3     4 2   
     8     3     9 1   
     9     3    16 1   
    10     4     5 1   
    11     4     8 1   
    12     5    10 1   
    13     5    12 2   
    14     6    10 2   
    15     6    11 1   
    16     6    17 1   
    17     7     8 1   
    18     7    18 1   
    19     7    19 1   
    20     7    20 1   
    21    10    21 1   
    22    11    12 1   
    23    11    22 1   
@<TRIPOS>SUBSTRUCTURE
     1 2F6         1 TEMP              0 ****  ****    0 ROOT
