@<TRIPOS>MOLECULE
2F6
   22    23     1     0     0
SMALL
No Charge or Current Charge


@<TRIPOS>ATOM
      1 N3           2.2840    -0.8490     0.0260 nc         1 2F6      -0.537800
      2 C5           3.6250     1.2260    -0.0210 c3         1 2F6       0.076900
      3 C6           1.0750     1.1370    -0.0120 cc         1 2F6      -0.154000
      4 C7           0.2190     0.0710     0.0130 cd         1 2F6      -0.240500
      5 C8          -1.2140     0.2090     0.0140 cd         1 2F6       0.354500
      6 C10         -3.2220     1.2080    -0.0020 cc         1 2F6      -0.173000
      7 C1           0.5150    -2.5430     0.0670 c3         1 2F6      -0.116400
      8 C2           0.9900    -1.1140     0.0360 cd         1 2F6       0.290300
      9 N4           2.3280     0.5330    -0.0030 na         1 2F6       0.133800
     10 C9          -1.8790     1.4540    -0.0110 cd         1 2F6      -0.230000
     11 N11         -3.2950    -0.1840     0.0280 na         1 2F6      -0.005200
     12 N13         -2.0550    -0.8070     0.0380 nc         1 2F6      -0.524800
     13 H1           4.1940     0.9610     0.8780 h1         1 2F6       0.054700
     14 H2           4.1890     0.9240    -0.9120 h1         1 2F6       0.054700
     15 H3           3.4660     2.3100    -0.0430 h1         1 2F6       0.054700
     16 H4           0.9240     2.2100    -0.0350 h4         1 2F6       0.151000
     17 H5          -4.0880     1.8610    -0.0130 h4         1 2F6       0.151000
     18 H6          -0.0910    -2.7320     0.9600 hc         1 2F6       0.049700
     19 H7          -0.0960    -2.7700    -0.8130 hc         1 2F6       0.049700
     20 H8           1.3530    -3.2490     0.0800 hc         1 2F6       0.049700
     21 H9          -1.4130     2.4320    -0.0330 ha         1 2F6       0.140000
     22 H10         -4.1560    -0.7320     0.0420 hn         1 2F6       0.369000
@<TRIPOS>BOND
     1     1     8 2   
     2     1     9 1   
     3     2     9 1   
     4     2    13 1   
     5     2    14 1   
     6     2    15 1   
     7     3     4 2   
     8     3     9 1   
     9     3    16 1   
    10     4     5 1   
    11     4     8 1   
    12     5    10 1   
    13     5    12 2   
    14     6    10 2   
    15     6    11 1   
    16     6    17 1   
    17     7     8 1   
    18     7    18 1   
    19     7    19 1   
    20     7    20 1   
    21    10    21 1   
    22    11    12 1   
    23    11    22 1   
@<TRIPOS>SUBSTRUCTURE
     1 2F6         1 TEMP              0 ****  ****    0 ROOT
