@<TRIPOS>MOLECULE
2F8
   33    33     1     0     0
SMALL
No Charge or Current Charge


@<TRIPOS>ATOM
      1 O6          33.4150    43.6100     2.6700 oh         1 2F8      -0.715000
      2 C6          33.0530    42.5310     3.5580 c3         1 2F8       0.170600
      3 C5          32.6090    43.0160     4.9790 c6         1 2F8       0.168300
      4 O5          31.5090    43.9540     4.8210 os         1 2F8      -0.459000
      5 C1          31.0290    44.5490     6.0480 c6         1 2F8       0.369300
      6 O1          32.0800    45.3450     6.6350 os         1 2F8      -0.493000
      7 CM          32.4870    46.5080     5.8920 c3         1 2F8       0.147900
      8 C2          30.5350    43.4410     7.0350 c6         1 2F8       0.057700
      9 N2          30.0760    44.0190     8.3240 ns         1 2F8      -0.514900
     10 C7          28.8420    44.5840     8.5400 c          1 2F8       0.602100
     11 O7          27.9710    44.5940     7.6840 o          1 2F8      -0.590100
     12 C8          28.6480    45.1950     9.9210 c3         1 2F8      -0.182100
     13 C3          31.6700    42.4000     7.2580 c6         1 2F8       0.123300
     14 O3          31.2220    41.3190     8.0990 oh         1 2F8      -0.661000
     15 C4          32.1670    41.8360     5.8960 c6         1 2F8       0.149300
     16 O4          33.2290    40.8940     6.1310 oh         1 2F8      -0.719000
     17 HO6         33.6110    43.2060     1.7920 ho         1 2F8       0.504000
     18 H61         32.2290    41.9480     3.1250 h1         1 2F8       0.036700
     19 H62         33.9050    41.8480     3.6800 h1         1 2F8       0.036700
     20 H5          33.4620    43.5350     5.4400 h1         1 2F8       0.070700
     21 H1          30.1750    45.2030     5.8160 h2         1 2F8       0.080700
     22 H6          33.2700    47.0520     6.4360 h1         1 2F8       0.038700
     23 H7          32.8890    46.2270     4.9100 h1         1 2F8       0.038700
     24 H8          31.6410    47.1890     5.7390 h1         1 2F8       0.038700
     25 H2          29.6840    42.9310     6.5590 h1         1 2F8       0.109700
     26 HN2         30.7520    44.1240     9.0720 hn         1 2F8       0.320500
     27 H81         27.6520    45.6310    10.0520 hc         1 2F8       0.062033
     28 H82         28.8610    44.4350    10.6810 hc         1 2F8       0.062033
     29 H83         29.4390    45.9320    10.0990 hc         1 2F8       0.062033
     30 H3          32.5120    42.9180     7.7430 h1         1 2F8       0.053700
     31 HO3         30.6400    41.7170     8.7850 ho         1 2F8       0.454000
     32 H4          31.3230    41.3260     5.4080 h1         1 2F8       0.055700
     33 HO4         32.9530    40.4150     6.9520 ho         1 2F8       0.523000
@<TRIPOS>BOND
     1     1     2 1   
     2     1    17 1   
     3     2     3 1   
     4     2    18 1   
     5     2    19 1   
     6     3     4 1   
     7     3    15 1   
     8     3    20 1   
     9     4     5 1   
    10     5     6 1   
    11     5     8 1   
    12     5    21 1   
    13     6     7 1   
    14     7    22 1   
    15     7    23 1   
    16     7    24 1   
    17     8     9 1   
    18     8    13 1   
    19     8    25 1   
    20     9    10 1   
    21     9    26 1   
    22    10    11 2   
    23    10    12 1   
    24    12    27 1   
    25    12    28 1   
    26    12    29 1   
    27    13    14 1   
    28    13    15 1   
    29    13    30 1   
    30    14    31 1   
    31    15    16 1   
    32    15    32 1   
    33    16    33 1   
@<TRIPOS>SUBSTRUCTURE
     1 2F8         1 TEMP              0 ****  ****    0 ROOT
