@<TRIPOS>MOLECULE
2F8
   33    33     1     0     0
SMALL
bcc


@<TRIPOS>ATOM
      1 O6          33.5260    43.5680     2.9050 oh         1 2F8      -0.592800
      2 C6          32.9600    42.5040     3.6330 c3         1 2F8       0.147400
      3 C5          32.5650    43.0140     5.0020 c6         1 2F8       0.145100
      4 O5          31.5450    43.9830     4.8110 os         1 2F8      -0.412600
      5 C1          31.1060    44.6260     5.9710 c6         1 2F8       0.322900
      6 O1          32.1160    45.3360     6.6090 os         1 2F8      -0.446600
      7 CM          32.5880    46.4580     5.8910 c3         1 2F8       0.124700
      8 C2          30.5480    43.6070     6.9650 c6         1 2F8       0.057700
      9 N2          30.1300    44.2460     8.1860 ns         1 2F8      -0.581900
     10 C7          28.8560    44.2800     8.6390 c          1 2F8       0.669100
     11 O7          27.9290    43.7220     8.0750 o          1 2F8      -0.590100
     12 C8          28.6810    45.0700     9.9150 c3         1 2F8      -0.182100
     13 C3          31.5670    42.4960     7.2320 c6         1 2F8       0.100100
     14 O3          31.0010    41.4460     7.9800 oh         1 2F8      -0.598800
     15 C4          32.0550    41.9020     5.9160 c6         1 2F8       0.126100
     16 O4          33.1080    40.9940     6.1250 oh         1 2F8      -0.596800
     17 HO6         33.8260    43.2250     2.0580 ho         1 2F8       0.405000
     18 H61         32.0720    42.0910     3.1340 h1         1 2F8       0.036700
     19 H62         33.6700    41.6800     3.7630 h1         1 2F8       0.036700
     20 H5          33.4480    43.4720     5.4710 h1         1 2F8       0.070700
     21 H1          30.3050    45.3020     5.6410 h2         1 2F8       0.080700
     22 H6          33.2720    46.9970     6.5430 h1         1 2F8       0.038700
     23 H7          33.1260    46.1730     4.9820 h1         1 2F8       0.038700
     24 H8          31.7690    47.1290     5.6110 h1         1 2F8       0.038700
     25 H2          29.6630    43.1590     6.5070 h1         1 2F8       0.109700
     26 HN2         30.8270    44.7700     8.6910 hn         1 2F8       0.320500
     27 H81         27.6340    45.0930    10.2040 hc         1 2F8       0.062033
     28 H82         29.2590    44.6250    10.7260 hc         1 2F8       0.062033
     29 H83         29.0340    46.0940     9.7900 hc         1 2F8       0.062033
     30 H3          32.4360    42.9190     7.7560 h1         1 2F8       0.053700
     31 HO3         30.9240    41.7270     8.8970 ho         1 2F8       0.415000
     32 H4          31.1990    41.4120     5.4220 h1         1 2F8       0.055700
     33 HO4         32.7970    40.3110     6.7280 ho         1 2F8       0.424000
@<TRIPOS>BOND
     1     1     2 1   
     2     1    17 1   
     3     2     3 1   
     4     2    18 1   
     5     2    19 1   
     6     3     4 1   
     7     3    15 1   
     8     3    20 1   
     9     4     5 1   
    10     5     6 1   
    11     5     8 1   
    12     5    21 1   
    13     6     7 1   
    14     7    22 1   
    15     7    23 1   
    16     7    24 1   
    17     8     9 1   
    18     8    13 1   
    19     8    25 1   
    20     9    10 1   
    21     9    26 1   
    22    10    11 2   
    23    10    12 1   
    24    12    27 1   
    25    12    28 1   
    26    12    29 1   
    27    13    14 1   
    28    13    15 1   
    29    13    30 1   
    30    14    31 1   
    31    15    16 1   
    32    15    32 1   
    33    16    33 1   
@<TRIPOS>SUBSTRUCTURE
     1 2F8         1 TEMP              0 ****  ****    0 ROOT
