@<TRIPOS>MOLECULE
2FA
   32    34     1     0     0
SMALL
bcc


@<TRIPOS>ATOM
      1 O5          -4.5500     1.7450    -1.0970 oh         1 2FA      -0.579800
      2 C5          -3.9330     1.2600     0.0690 c3         1 2FA       0.137400
      3 C4          -3.2810    -0.0670    -0.2330 c5         1 2FA       0.137100
      4 O4          -2.2400     0.0840    -1.2010 os         1 2FA      -0.380600
      5 C1          -1.0940    -0.6130    -0.8260 c5         1 2FA       0.265800
      6 N9          -0.0610     0.3440    -0.4260 na         1 2FA      -0.279000
      7 C9           1.2330     0.0350    -0.1470 ca         1 2FA       0.468800
      8 N3           1.8100    -1.1700    -0.1410 nb         1 2FA      -0.775000
      9 C2           3.0720    -1.0670     0.1710 ca         1 2FA       0.936200
     10 F            3.7350    -2.2210     0.2040 f          1 2FA      -0.204200
     11 N1           3.8090    -0.0200     0.4600 nb         1 2FA      -0.857000
     12 C6           3.2220     1.1850     0.4490 ca         1 2FA       0.807200
     13 N6           3.9450     2.2600     0.7380 nv         1 2FA      -0.943500
     14 C7           1.8510     1.2440     0.1290 ca         1 2FA      -0.248200
     15 N7           0.9630     2.2780     0.0130 nc         1 2FA      -0.551100
     16 C8          -0.1570     1.7080    -0.3220 cd         1 2FA       0.412700
     17 C10         -1.4920    -1.5210     0.3370 c5         1 2FA       0.081100
     18 O2          -1.9990    -2.7060    -0.2110 oh         1 2FA      -0.576800
     19 C3          -2.6030    -0.6900     0.9840 c5         1 2FA       0.066100
     20 O3          -3.5220    -1.4470     1.7180 oh         1 2FA      -0.583800
     21 H5          -4.9530     2.5930    -0.8920 ho         1 2FA       0.408000
     22 H5'1        -4.6550     1.0900     0.8780 h1         1 2FA       0.026700
     23 H5'2        -3.1800     1.9580     0.4580 h1         1 2FA       0.026700
     24 H4          -4.0360    -0.7570    -0.6310 h1         1 2FA       0.096700
     25 H1          -0.7000    -1.1830    -1.6710 h2         1 2FA       0.127700
     26 HN61         4.9280     2.1790     0.9310 hn         1 2FA       0.457300
     27 HN62         3.5380     3.1790     0.7120 hn         1 2FA       0.457300
     28 H8          -1.0770     2.2340    -0.5200 h5         1 2FA       0.078800
     29 H2          -0.6570    -1.7120     1.0220 h1         1 2FA       0.083700
     30 H6          -2.6680    -3.0480     0.3950 ho         1 2FA       0.426000
     31 H3          -2.1470     0.0970     1.6000 h1         1 2FA       0.055700
     32 H7          -3.1710    -1.5900     2.6030 ho         1 2FA       0.420000
@<TRIPOS>BOND
     1     1     2 1   
     2     1    21 1   
     3     2     3 1   
     4     2    22 1   
     5     2    23 1   
     6     3     4 1   
     7     3    19 1   
     8     3    24 1   
     9     4     5 1   
    10     5     6 1   
    11     5    17 1   
    12     5    25 1   
    13     6     7 1   
    14     6    16 1   
    15     7     8 ar  
    16     7    14 ar  
    17     8     9 ar  
    18     9    10 1   
    19     9    11 ar  
    20    11    12 ar  
    21    12    13 1   
    22    12    14 ar  
    23    13    26 1   
    24    13    27 1   
    25    14    15 1   
    26    15    16 2   
    27    16    28 1   
    28    17    18 1   
    29    17    19 1   
    30    17    29 1   
    31    18    30 1   
    32    19    20 1   
    33    19    31 1   
    34    20    32 1   
@<TRIPOS>SUBSTRUCTURE
     1 2FA         1 TEMP              0 ****  ****    0 ROOT
