@<TRIPOS>MOLECULE
2FA
   32    34     1     0     0
SMALL
No Charge or Current Charge


@<TRIPOS>ATOM
      1 O5          -4.9650     1.5250    -1.2500 oh         1 2FA      -0.702000
      2 C5          -4.2570     1.1640    -0.0490 c3         1 2FA       0.160600
      3 C4          -3.3230    -0.0550    -0.2820 c5         1 2FA       0.160300
      4 O4          -2.1950     0.3120    -1.1170 os         1 2FA      -0.427000
      5 C1          -1.0500    -0.5060    -0.7600 c5         1 2FA       0.318300
      6 N9           0.0510     0.3730    -0.3650 na         1 2FA      -0.308300
      7 C9           1.3620     0.0390    -0.1550 ca         1 2FA       0.140500
      8 N3           1.9940    -1.1450    -0.2570 nb         1 2FA      -0.249000
      9 C2           3.3170    -1.1220     0.0230 ca         1 2FA       0.410200
     10 F            3.9660    -2.3010    -0.0760 f          1 2FA      -0.204200
     11 N1           4.0660    -0.0610     0.3890 nb         1 2FA      -0.331000
     12 C6           3.4040     1.0980     0.4840 ca         1 2FA       0.478900
     13 N6           4.1430     2.1760     0.8490 nv         1 2FA      -1.053900
     14 C7           2.0220     1.1850     0.2100 ca         1 2FA      -0.117600
     15 N7           1.1820     2.2920     0.2450 nc         1 2FA      -0.551100
     16 C8          -0.0020     1.7570    -0.1110 cd         1 2FA       0.412700
     17 C10         -1.5430    -1.4880     0.3640 c5         1 2FA       0.104300
     18 O2          -2.1050    -2.7130    -0.1400 oh         1 2FA      -0.699000
     19 C3          -2.6590    -0.6230     1.0100 c5         1 2FA       0.089300
     20 O3          -3.5470    -1.4250     1.8110 oh         1 2FA      -0.706000
     21 H5          -5.5020     2.3250    -1.0400 ho         1 2FA       0.507000
     22 H5'1        -4.9740     0.9070     0.7420 h1         1 2FA       0.026700
     23 H5'2        -3.6550     2.0090     0.3130 h1         1 2FA       0.026700
     24 H4          -3.8980    -0.8390    -0.7940 h1         1 2FA       0.096700
     25 H1          -0.6930    -1.0710    -1.6310 h2         1 2FA       0.127700
     26 HN61         5.1510     2.1200     0.7340 hn         1 2FA       0.512500
     27 HN62         3.7190     3.0900     0.7100 hn         1 2FA       0.512500
     28 H8          -0.9310     2.3090    -0.2010 h5         1 2FA       0.078800
     29 H2          -0.7370    -1.7020     1.0820 h1         1 2FA       0.083700
     30 H6          -2.8830    -2.8760     0.4500 ho         1 2FA       0.525000
     31 H3          -2.2260     0.1940     1.6060 h1         1 2FA       0.055700
     32 H7          -3.3030    -1.2870     2.7590 ho         1 2FA       0.519000
@<TRIPOS>BOND
     1     1     2 1   
     2     1    21 1   
     3     2     3 1   
     4     2    22 1   
     5     2    23 1   
     6     3     4 1   
     7     3    19 1   
     8     3    24 1   
     9     4     5 1   
    10     5     6 1   
    11     5    17 1   
    12     5    25 1   
    13     6     7 1   
    14     6    16 1   
    15     7     8 ar  
    16     7    14 ar  
    17     8     9 ar  
    18     9    10 1   
    19     9    11 ar  
    20    11    12 ar  
    21    12    13 1   
    22    12    14 ar  
    23    13    26 1   
    24    13    27 1   
    25    14    15 1   
    26    15    16 2   
    27    16    28 1   
    28    17    18 1   
    29    17    19 1   
    30    17    29 1   
    31    18    30 1   
    32    19    20 1   
    33    19    31 1   
    34    20    32 1   
@<TRIPOS>SUBSTRUCTURE
     1 2FA         1 TEMP              0 ****  ****    0 ROOT
