@<TRIPOS>MOLECULE
2FB
   49    53     1     0     0
SMALL
No Charge or Current Charge


@<TRIPOS>ATOM
      1 C1           4.9160     2.6650     1.9720 c3         1 2FB      -0.132400
      2 C2           3.8090     2.2540     1.0480 cc         1 2FB       0.444700
      3 N3           3.6910     2.7320    -0.1960 nd         1 2FB      -0.606000
      4 C4           2.5640     2.1350    -0.7520 cd         1 2FB       0.160700
      5 C5           1.9000     1.2790     0.0090 cc         1 2FB      -0.246300
      6 S6           2.5840     1.0970     1.5880 ss         1 2FB       0.013600
      7 C7           0.7160     0.7530    -0.7620 c5         1 2FB       0.327100
      8 N8           0.8230     1.4710    -2.1120 n2         1 2FB      -0.678900
      9 C9           1.8770     2.2240    -2.0360 cf         1 2FB       0.600200
     10 N10          2.3380     3.0190    -3.0160 nv         1 2FB      -1.023200
     11 C11          1.0070    -0.7640    -0.7870 ca         1 2FB      -0.111300
     12 C12          1.4470    -1.4140    -1.9640 ca         1 2FB      -0.056000
     13 C13          1.7060    -2.7950    -1.9690 ca         1 2FB      -0.176000
     14 C14          1.5340    -3.5590    -0.8070 ca         1 2FB       0.145100
     15 C15          1.0980    -2.9270     0.3740 ca         1 2FB      -0.176000
     16 C16          0.8400    -1.5460     0.3800 ca         1 2FB      -0.056000
     17 O17          1.8030    -4.9110    -0.8750 os         1 2FB      -0.340100
     18 C18          1.6550    -5.7800     0.2620 c3         1 2FB       0.148900
     19 C19         -0.5400     1.1740     0.0340 ca         1 2FB      -0.056300
     20 C20         -0.6200     2.4070     0.7250 ca         1 2FB      -0.094000
     21 C21         -1.7840     2.7630     1.4230 ca         1 2FB      -0.113000
     22 C22         -2.8930     1.9060     1.4340 ca         1 2FB      -0.094000
     23 C23         -2.8660     0.6760     0.7340 cp         1 2FB      -0.041000
     24 C24         -1.6810     0.3400     0.0320 ca         1 2FB      -0.063000
     25 C25         -4.0510    -0.2400     0.7310 cp         1 2FB      -0.129000
     26 C26         -5.3800     0.2380     0.8650 ca         1 2FB       0.111400
     27 N27         -6.4490    -0.5840     0.8630 nb         1 2FB      -0.172500
     28 C28         -6.1950    -1.9020     0.7290 ca         1 2FB       0.112900
     29 N29         -4.9820    -2.4770     0.5970 nb         1 2FB      -0.172500
     30 C30         -3.9190    -1.6480     0.5970 ca         1 2FB       0.111400
     31 H11C         4.5100     3.0160     2.9280 hc         1 2FB       0.061033
     32 H12C         5.5820     1.8190     2.1730 hc         1 2FB       0.061033
     33 H13C         5.5150     3.4750     1.5400 hc         1 2FB       0.061033
     34 H101         3.2630     3.4260    -2.9220 hn         1 2FB       0.491500
     35 H102         1.9680     2.9100    -3.9530 hn         1 2FB       0.491500
     36 H12          1.5930    -0.8550    -2.8850 ha         1 2FB       0.123000
     37 H16          0.5040    -1.0790     1.3040 ha         1 2FB       0.123000
     38 H13          2.0430    -3.2770    -2.8840 ha         1 2FB       0.122500
     39 H15          0.9540    -3.4870     1.2940 ha         1 2FB       0.122500
     40 H181         1.9190    -6.8100    -0.0100 h1         1 2FB       0.040700
     41 H182         2.3130    -5.4660     1.0810 h1         1 2FB       0.040700
     42 H183         0.6180    -5.7790     0.6210 h1         1 2FB       0.040700
     43 H20          0.2170     3.1000     0.7220 ha         1 2FB       0.116000
     44 H24         -1.6540    -0.5830    -0.5400 ha         1 2FB       0.130000
     45 H21         -1.8250     3.7100     1.9580 ha         1 2FB       0.115000
     46 H22         -3.7770     2.1980     1.9950 ha         1 2FB       0.115000
     47 H26         -5.5950     1.3010     0.9620 h4         1 2FB       0.028600
     48 H30         -2.9440    -2.1210     0.5030 h4         1 2FB       0.028600
     49 H28         -7.0560    -2.5690     0.7280 h5         1 2FB       0.050100
@<TRIPOS>BOND
     1     1     2 1   
     2     1    31 1   
     3     1    32 1   
     4     1    33 1   
     5     2     3 2   
     6     2     6 1   
     7     3     4 1   
     8     4     5 2   
     9     4     9 1   
    10     5     6 1   
    11     5     7 1   
    12     7     8 1   
    13     7    11 1   
    14     7    19 1   
    15     8     9 2   
    16     9    10 1   
    17    10    34 1   
    18    10    35 1   
    19    11    12 ar  
    20    11    16 ar  
    21    12    13 ar  
    22    12    36 1   
    23    13    14 ar  
    24    13    38 1   
    25    14    15 ar  
    26    14    17 1   
    27    15    16 ar  
    28    15    39 1   
    29    16    37 1   
    30    17    18 1   
    31    18    40 1   
    32    18    41 1   
    33    18    42 1   
    34    19    20 ar  
    35    19    24 ar  
    36    20    21 ar  
    37    20    43 1   
    38    21    22 ar  
    39    21    45 1   
    40    22    23 ar  
    41    22    46 1   
    42    23    24 ar  
    43    23    25 1   
    44    24    44 1   
    45    25    26 ar  
    46    25    30 ar  
    47    26    27 ar  
    48    26    47 1   
    49    27    28 ar  
    50    28    29 ar  
    51    28    49 1   
    52    29    30 ar  
    53    30    48 1   
@<TRIPOS>SUBSTRUCTURE
     1 2FB         1 TEMP              0 ****  ****    0 ROOT
