@<TRIPOS>MOLECULE
2FB
   49    53     1     0     0
SMALL
bcc


@<TRIPOS>ATOM
      1 C1           5.3120     3.0160     1.3370 c3         1 2FB      -0.132400
      2 C2           4.0780     2.4970     0.6890 cc         1 2FB       0.444700
      3 N3           3.6380     2.8520    -0.4750 nd         1 2FB      -0.606000
      4 C4           2.4850     2.1880    -0.7460 cd         1 2FB       0.226000
      5 C5           2.0150     1.3260     0.1800 cc         1 2FB      -0.166700
      6 S6           3.0780     1.3060     1.5100 ss         1 2FB      -0.131300
      7 C7           0.7740     0.6630    -0.3520 c5         1 2FB       0.327100
      8 N8           0.6110     1.2660    -1.6760 n2         1 2FB      -0.678900
      9 C9           1.5600     2.1190    -1.8790 cf         1 2FB       0.600200
     10 N10          1.6890     2.8930    -2.9690 nv         1 2FB      -0.912800
     11 C11          1.0060    -0.8410    -0.4410 ca         1 2FB      -0.111300
     12 C12          1.1760    -1.4900    -1.6590 ca         1 2FB      -0.074000
     13 C13          1.4150    -2.8530    -1.7120 ca         1 2FB      -0.194000
     14 C14          1.4850    -3.6040    -0.5400 ca         1 2FB       0.145100
     15 C15          1.3150    -2.9640     0.6870 ca         1 2FB      -0.194000
     16 C16          1.0750    -1.5980     0.7220 ca         1 2FB      -0.074000
     17 O17          1.7150    -4.9230    -0.6830 os         1 2FB      -0.316900
     18 C18          1.7930    -5.7250     0.4780 c3         1 2FB       0.125700
     19 C19         -0.4840     0.9700     0.4510 ca         1 2FB      -0.056300
     20 C20         -0.5190     1.9130     1.4690 ca         1 2FB      -0.112000
     21 C21         -1.7110     2.1860     2.1310 ca         1 2FB      -0.131000
     22 C22         -2.8740     1.5220     1.7870 ca         1 2FB      -0.112000
     23 C23         -2.8570     0.5730     0.7610 cp         1 2FB      -0.041000
     24 C24         -1.6600     0.3130     0.1030 ca         1 2FB      -0.081000
     25 C25         -4.0830    -0.1470     0.3860 cp         1 2FB      -0.259600
     26 C26         -5.3340     0.4650     0.3660 ca         1 2FB       0.439700
     27 N27         -6.4420    -0.1810     0.0330 nb         1 2FB      -0.698500
     28 C28         -6.3110    -1.4580    -0.2920 ca         1 2FB       0.638900
     29 N29         -5.1800    -2.1460    -0.3120 nb         1 2FB      -0.698500
     30 C30         -4.0790    -1.4920     0.0290 ca         1 2FB       0.439700
     31 H11C         5.0820     3.5200     2.2760 hc         1 2FB       0.061033
     32 H12C         6.0110     2.2090     1.5580 hc         1 2FB       0.061033
     33 H13C         5.7980     3.7260     0.6720 hc         1 2FB       0.061033
     34 H101         2.5630     3.3610    -3.1350 hn         1 2FB       0.436300
     35 H102         1.1360     2.6830    -3.7830 hn         1 2FB       0.436300
     36 H12          1.1160    -0.9250    -2.5790 ha         1 2FB       0.141000
     37 H16          0.9320    -1.1280     1.6890 ha         1 2FB       0.141000
     38 H13          1.5450    -3.3440    -2.6680 ha         1 2FB       0.140500
     39 H15          1.3610    -3.5100     1.6190 ha         1 2FB       0.140500
     40 H181         1.9680    -6.7430     0.1390 h1         1 2FB       0.040700
     41 H182         2.6190    -5.4250     1.1280 h1         1 2FB       0.040700
     42 H183         0.8640    -5.7020     1.0540 h1         1 2FB       0.040700
     43 H20          0.3770     2.4480     1.7580 ha         1 2FB       0.134000
     44 H24         -1.6400    -0.4050    -0.7090 ha         1 2FB       0.148000
     45 H21         -1.7240     2.9150     2.9300 ha         1 2FB       0.133000
     46 H22         -3.7900     1.7240     2.3280 ha         1 2FB       0.133000
     47 H26         -5.4390     1.5160     0.6130 h4         1 2FB       0.028600
     48 H30         -3.1560    -2.0630     0.0320 h4         1 2FB       0.028600
     49 H28         -7.2150    -1.9900    -0.5670 h5         1 2FB       0.050100
@<TRIPOS>BOND
     1     1     2 1   
     2     1    31 1   
     3     1    32 1   
     4     1    33 1   
     5     2     3 2   
     6     2     6 1   
     7     3     4 1   
     8     4     5 2   
     9     4     9 1   
    10     5     6 1   
    11     5     7 1   
    12     7     8 1   
    13     7    11 1   
    14     7    19 1   
    15     8     9 2   
    16     9    10 1   
    17    10    34 1   
    18    10    35 1   
    19    11    12 ar  
    20    11    16 ar  
    21    12    13 ar  
    22    12    36 1   
    23    13    14 ar  
    24    13    38 1   
    25    14    15 ar  
    26    14    17 1   
    27    15    16 ar  
    28    15    39 1   
    29    16    37 1   
    30    17    18 1   
    31    18    40 1   
    32    18    41 1   
    33    18    42 1   
    34    19    20 ar  
    35    19    24 ar  
    36    20    21 ar  
    37    20    43 1   
    38    21    22 ar  
    39    21    45 1   
    40    22    23 ar  
    41    22    46 1   
    42    23    24 ar  
    43    23    25 1   
    44    24    44 1   
    45    25    26 ar  
    46    25    30 ar  
    47    26    27 ar  
    48    26    47 1   
    49    27    28 ar  
    50    28    29 ar  
    51    28    49 1   
    52    29    30 ar  
    53    30    48 1   
@<TRIPOS>SUBSTRUCTURE
     1 2FB         1 TEMP              0 ****  ****    0 ROOT
