@<TRIPOS>MOLECULE
2FC
   57    60     1     0     0
SMALL
bcc


@<TRIPOS>ATOM
      1 C4           3.7940     4.0720     0.4220 ca         1 2FC      -0.092000
      2 C5           2.1260     3.0650    -0.9870 ca         1 2FC      -0.092000
      3 C6           1.0910    -3.7710    -0.3960 ca         1 2FC      -0.111000
      4 C7          -0.1850    -3.2410    -0.3280 ca         1 2FC      -0.126000
      5 C8           0.7830    -1.1320     0.2700 ca         1 2FC      -0.173000
      6 C10          2.2320    -3.0150    -0.1350 ca         1 2FC      -0.087300
      7 C13          3.3180     1.6610     0.7540 c          1 2FC       0.679700
      8 C15          3.5920    -3.6550    -0.2380 c6         1 2FC      -0.029100
      9 C17          4.5790    -1.3950     0.0990 c6         1 2FC      -0.091400
     10 C20         -5.8910     0.1210    -1.1510 c6         1 2FC       0.150300
     11 C21         -4.9850     0.9210     0.8880 c6         1 2FC       0.150300
     12 C22          3.2550    -0.7980     0.5650 c6         1 2FC       0.154000
     13 C1           2.6580     5.3980    -1.2320 ca         1 2FC      -0.108000
     14 C2           3.5970     5.2880    -0.2130 ca         1 2FC      -0.138000
     15 C3           1.9190     4.2860    -1.6130 ca         1 2FC      -0.138000
     16 C9           3.0710     2.9470     0.0300 ca         1 2FC      -0.152600
     17 C11          2.0650    -1.6730     0.2100 ca         1 2FC      -0.071300
     18 C12         -0.3480    -1.8950     0.0020 ca         1 2FC       0.075600
     19 C14         -2.7040    -1.5640    -0.6270 c          1 2FC       0.791100
     20 C16          4.6680    -2.8610     0.4880 c6         1 2FC      -0.070400
     21 C18         -5.0440    -1.1340    -1.0670 c6         1 2FC       0.100500
     22 C19         -4.1170    -0.3180     1.0140 c6         1 2FC       0.100500
     23 N24         -3.8370    -0.8770    -0.3000 n          1 2FC      -0.488800
     24 N25         -6.2050     0.6250     0.1690 n3         1 2FC      -0.712600
     25 N26         -1.6010    -1.2890     0.1460 ns         1 2FC      -0.488100
     26 N27          3.0750     0.5420     0.0490 ns         1 2FC      -0.567900
     27 O28          3.7150     1.6550     1.9110 o          1 2FC      -0.602100
     28 O29         -2.6620    -2.3560    -1.5570 o          1 2FC      -0.622100
     29 H1           4.5200     3.9930     1.2200 ha         1 2FC       0.142000
     30 H2           1.5230     2.2170    -1.2890 ha         1 2FC       0.142000
     31 H3           1.2040    -4.8190    -0.6490 ha         1 2FC       0.131000
     32 H4          -1.0360    -3.8770    -0.5130 ha         1 2FC       0.157000
     33 H5           0.6600    -0.0860     0.5290 ha         1 2FC       0.132000
     34 H6           3.5430    -4.6770     0.1450 hc         1 2FC       0.049200
     35 H7           3.8650    -3.7460    -1.2950 hc         1 2FC       0.049200
     36 H8           4.6630    -1.2950    -0.9890 hc         1 2FC       0.049200
     37 H9           5.3990    -0.8210     0.5360 hc         1 2FC       0.049200
     38 H11         -6.8190    -0.1260    -1.6740 h1         1 2FC       0.040700
     39 H12         -5.2330     1.2710     1.8930 h1         1 2FC       0.040700
     40 H13         -4.4020     1.7200     0.3970 h1         1 2FC       0.040700
     41 H14          3.2880    -0.7100     1.6550 h1         1 2FC       0.090700
     42 H15          2.5010     6.3490    -1.7240 ha         1 2FC       0.133000
     43 H16          4.1750     6.1520     0.0880 ha         1 2FC       0.135000
     44 H17          1.1770     4.3680    -2.3950 ha         1 2FC       0.135000
     45 H18          4.5440    -2.9630     1.5700 hc         1 2FC       0.046700
     46 H19          5.6540    -3.2610     0.2460 hc         1 2FC       0.046700
     47 H20         -5.6250    -1.9380    -0.5990 h1         1 2FC       0.055950
     48 H21         -4.7800    -1.4570    -2.0710 h1         1 2FC       0.055950
     49 H22         -3.2080    -0.0430     1.5430 h1         1 2FC       0.055950
     50 H23         -4.6340    -1.0650     1.6280 h1         1 2FC       0.055950
     51 H24         -8.0110     1.5040    -0.3980 h1         1 2FC       0.033033
     52 H25         -7.3390     2.0990     1.1190 h1         1 2FC       0.033033
     53 H26         -6.6440     2.6290    -0.4210 h1         1 2FC       0.033033
     54 H28         -1.5890    -0.4180     0.6520 hn         1 2FC       0.315500
     55 H29          2.8940     0.6230    -0.9400 hn         1 2FC       0.316500
     56 H10         -5.3630     0.8740    -1.7620 h1         1 2FC       0.040700
     57 C23         -7.0830     1.7710     0.1110 c3         1 2FC       0.151100
@<TRIPOS>BOND
     1     1    14 ar  
     2     1    16 ar  
     3     1    29 1   
     4     2    15 ar  
     5     2    16 ar  
     6     2    30 1   
     7     3     4 ar  
     8     3     6 ar  
     9     3    31 1   
    10     4    18 ar  
    11     4    32 1   
    12     5    17 ar  
    13     5    18 ar  
    14     5    33 1   
    15     6     8 1   
    16     6    17 ar  
    17     7    16 1   
    18     7    26 1   
    19     7    27 2   
    20     8    20 1   
    21     8    34 1   
    22     8    35 1   
    23     9    12 1   
    24     9    20 1   
    25     9    36 1   
    26     9    37 1   
    27    10    21 1   
    28    10    24 1   
    29    10    38 1   
    30    10    56 1   
    31    11    22 1   
    32    11    24 1   
    33    11    39 1   
    34    11    40 1   
    35    12    17 1   
    36    12    26 1   
    37    12    41 1   
    38    13    14 ar  
    39    13    15 ar  
    40    13    42 1   
    41    14    43 1   
    42    15    44 1   
    43    18    25 1   
    44    19    23 1   
    45    19    25 1   
    46    19    28 2   
    47    20    45 1   
    48    20    46 1   
    49    21    23 1   
    50    21    47 1   
    51    21    48 1   
    52    22    23 1   
    53    22    49 1   
    54    22    50 1   
    55    24    57 1   
    56    25    54 1   
    57    26    55 1   
    58    51    57 1   
    59    52    57 1   
    60    53    57 1   
@<TRIPOS>SUBSTRUCTURE
     1 2FC         1 TEMP              0 ****  ****    0 ROOT
