@<TRIPOS>MOLECULE
2FC
   57    60     1     0     0
SMALL
No Charge or Current Charge


@<TRIPOS>ATOM
      1 C4           3.2960     4.1540     0.8910 ca         1 2FC      -0.074000
      2 C5           2.7370     2.9940    -1.1740 ca         1 2FC      -0.074000
      3 C6           1.2200    -3.8280    -0.7970 ca         1 2FC      -0.093000
      4 C7          -0.0770    -3.2920    -0.7950 ca         1 2FC      -0.108000
      5 C8           0.7850    -1.2380     0.1630 ca         1 2FC      -0.155000
      6 C10          2.3100    -3.0770    -0.3210 ca         1 2FC      -0.087300
      7 C13          3.3270     1.6230     0.9190 c          1 2FC       0.612700
      8 C15          3.7060    -3.7100    -0.3350 c6         1 2FC      -0.029100
      9 C17          4.6570    -1.4670     0.3380 c6         1 2FC      -0.091400
     10 C20         -6.3870    -0.2050    -0.6450 c6         1 2FC       0.150300
     11 C21         -4.8430     1.4320     0.2370 c6         1 2FC       0.150300
     12 C22          3.2610    -0.8990     0.6870 c6         1 2FC       0.154000
     13 C1           2.7330     5.4300    -1.1040 ca         1 2FC      -0.090000
     14 C2           3.1060     5.3890     0.2470 ca         1 2FC      -0.120000
     15 C3           2.5480     4.2320    -1.8120 ca         1 2FC      -0.120000
     16 C9           3.1150     2.9370     0.1920 ca         1 2FC      -0.152600
     17 C11          2.0970    -1.7580     0.1490 ca         1 2FC      -0.071300
     18 C12         -0.3070    -1.9890    -0.3080 ca         1 2FC      -0.017000
     19 C14         -2.8580    -1.8130    -0.6280 c          1 2FC       0.657100
     20 C16          4.7110    -2.9870     0.5850 c6         1 2FC      -0.070400
     21 C18         -5.3260    -1.3360    -0.5690 c6         1 2FC       0.100500
     22 C19         -3.7000     0.3850     0.3490 c6         1 2FC       0.100500
     23 N24         -3.9050    -0.8850    -0.4250 n          1 2FC      -0.421800
     24 N25         -6.1890     0.8300     0.4000 n3         1 2FC      -0.712600
     25 N26         -1.5900    -1.3760    -0.2620 ns         1 2FC      -0.162000
     26 N27          3.1490     0.4750     0.1820 ns         1 2FC      -0.500900
     27 O28          3.6380     1.5750     2.1020 o          1 2FC      -0.602100
     28 O29         -3.0830    -2.9200    -1.0990 o          1 2FC      -0.622100
     29 H1           3.5860     4.1460     1.9400 ha         1 2FC       0.124000
     30 H2           2.5820     2.0900    -1.7570 ha         1 2FC       0.124000
     31 H3           1.3790    -4.8380    -1.1690 ha         1 2FC       0.113000
     32 H4          -0.8870    -3.9100    -1.1710 ha         1 2FC       0.139000
     33 H5           0.6090    -0.2360     0.5480 ha         1 2FC       0.114000
     34 H6           3.6430    -4.7670    -0.0420 hc         1 2FC       0.049200
     35 H7           4.0870    -3.7020    -1.3660 hc         1 2FC       0.049200
     36 H8           4.8930    -1.2630    -0.7160 hc         1 2FC       0.049200
     37 H9           5.4250    -0.9590     0.9360 hc         1 2FC       0.049200
     38 H11         -7.3850    -0.6580    -0.5540 h1         1 2FC       0.040700
     39 H12         -4.6760     2.2120     0.9940 h1         1 2FC       0.040700
     40 H13         -4.7700     1.9230    -0.7460 h1         1 2FC       0.040700
     41 H14          3.1630    -0.8840     1.7840 h1         1 2FC       0.090700
     42 H15          2.5860     6.3860    -1.6010 ha         1 2FC       0.115000
     43 H16          3.2500     6.3160     0.7990 ha         1 2FC       0.117000
     44 H17          2.2580     4.2630    -2.8600 ha         1 2FC       0.117000
     45 H18          4.4780    -3.2020     1.6370 hc         1 2FC       0.046700
     46 H19          5.7260    -3.3660     0.4020 hc         1 2FC       0.046700
     47 H20         -5.5660    -1.9750     0.2930 h1         1 2FC       0.055950
     48 H21         -5.4260    -1.9600    -1.4680 h1         1 2FC       0.055950
     49 H22         -2.7710     0.8760     0.0290 h1         1 2FC       0.055950
     50 H23         -3.5800     0.1210     1.4100 h1         1 2FC       0.055950
     51 H24         -8.2430     1.3700     0.5610 h1         1 2FC       0.033033
     52 H25         -7.1090     2.5730     1.2080 h1         1 2FC       0.033033
     53 H26         -7.2970     2.3870    -0.5520 h1         1 2FC       0.033033
     54 H28         -1.5720    -0.4370     0.1110 hn         1 2FC       0.149000
     55 H29          2.8900     0.5950    -0.7870 hn         1 2FC       0.316500
     56 H10         -6.3360     0.2550    -1.6430 h1         1 2FC       0.040700
     57 C23         -7.2660     1.8440     0.4020 c3         1 2FC       0.151100
@<TRIPOS>BOND
     1     1    14 ar  
     2     1    16 ar  
     3     1    29 1   
     4     2    15 ar  
     5     2    16 ar  
     6     2    30 1   
     7     3     4 ar  
     8     3     6 ar  
     9     3    31 1   
    10     4    18 ar  
    11     4    32 1   
    12     5    17 ar  
    13     5    18 ar  
    14     5    33 1   
    15     6     8 1   
    16     6    17 ar  
    17     7    16 1   
    18     7    26 1   
    19     7    27 2   
    20     8    20 1   
    21     8    34 1   
    22     8    35 1   
    23     9    12 1   
    24     9    20 1   
    25     9    36 1   
    26     9    37 1   
    27    10    21 1   
    28    10    24 1   
    29    10    38 1   
    30    10    56 1   
    31    11    22 1   
    32    11    24 1   
    33    11    39 1   
    34    11    40 1   
    35    12    17 1   
    36    12    26 1   
    37    12    41 1   
    38    13    14 ar  
    39    13    15 ar  
    40    13    42 1   
    41    14    43 1   
    42    15    44 1   
    43    18    25 1   
    44    19    23 1   
    45    19    25 1   
    46    19    28 2   
    47    20    45 1   
    48    20    46 1   
    49    21    23 1   
    50    21    47 1   
    51    21    48 1   
    52    22    23 1   
    53    22    49 1   
    54    22    50 1   
    55    24    57 1   
    56    25    54 1   
    57    26    55 1   
    58    51    57 1   
    59    52    57 1   
    60    53    57 1   
@<TRIPOS>SUBSTRUCTURE
     1 2FC         1 TEMP              0 ****  ****    0 ROOT
