@<TRIPOS>MOLECULE
2FD
   31    33     1     0     0
SMALL
bcc


@<TRIPOS>ATOM
      1 O5          -4.5750     1.6130    -0.8870 oh         1 2FD      -0.582800
      2 C5          -3.9400     1.0460     0.2320 c3         1 2FD       0.136400
      3 C4          -3.3250    -0.2740    -0.1620 c5         1 2FD       0.132100
      4 O4          -2.3340    -0.0930    -1.1790 os         1 2FD      -0.389600
      5 C1          -1.1610    -0.7770    -0.8670 c5         1 2FD       0.273800
      6 N9          -0.1400     0.2030    -0.4640 na         1 2FD      -0.277000
      7 C9           1.1500    -0.0810    -0.1460 ca         1 2FD       0.466800
      8 N3           1.7460    -1.2770    -0.0890 nb         1 2FD      -0.782000
      9 C2           2.9980    -1.1460     0.2470 ca         1 2FD       0.935200
     10 F            3.6760    -2.2890     0.3300 f          1 2FD      -0.207200
     11 N1           3.7150    -0.0810     0.5200 nb         1 2FD      -0.857000
     12 C6           3.1110     1.1140     0.4600 ca         1 2FD       0.807200
     13 N6           3.8110     2.2080     0.7380 nv         1 2FD      -0.943500
     14 C7           1.7480     1.1440     0.1060 ca         1 2FD      -0.246200
     15 N7           0.8520     2.1630    -0.0680 nc         1 2FD      -0.554100
     16 C8          -0.2520     1.5670    -0.4120 cd         1 2FD       0.413700
     17 C10         -1.5100    -1.7350     0.2600 c5         1 2FD      -0.160400
     18 C3          -2.6090    -0.9710     0.9930 c5         1 2FD       0.115100
     19 O3          -3.5180    -1.7610     1.7060 oh         1 2FD      -0.580800
     20 H5          -4.9420     2.4620    -0.6260 ho         1 2FD       0.408000
     21 H5'1        -4.6460     0.8480     1.0490 h1         1 2FD       0.028700
     22 H5'2        -3.1610     1.7040     0.6400 h1         1 2FD       0.028700
     23 H4          -4.1050    -0.9390    -0.5550 h1         1 2FD       0.091700
     24 H1          -0.7810    -1.2850    -1.7560 h2         1 2FD       0.107700
     25 HN61         4.7910     2.1480     0.9520 hn         1 2FD       0.456800
     26 HN62         3.3920     3.1200     0.6730 hn         1 2FD       0.456800
     27 H8          -1.1730     2.0740    -0.6530 h5         1 2FD       0.080800
     28 H2'1        -1.9210    -2.6520    -0.1690 hc         1 2FD       0.088700
     29 H2'2        -0.6590    -2.0020     0.8830 hc         1 2FD       0.088700
     30 H3          -2.1480    -0.2170     1.6470 h1         1 2FD       0.045700
     31 H6          -3.0960    -2.0500     2.5210 ho         1 2FD       0.417000
@<TRIPOS>BOND
     1     1     2 1   
     2     1    20 1   
     3     2     3 1   
     4     2    21 1   
     5     2    22 1   
     6     3     4 1   
     7     3    18 1   
     8     3    23 1   
     9     4     5 1   
    10     5     6 1   
    11     5    17 1   
    12     5    24 1   
    13     6     7 1   
    14     6    16 1   
    15     7     8 ar  
    16     7    14 ar  
    17     8     9 ar  
    18     9    10 1   
    19     9    11 ar  
    20    11    12 ar  
    21    12    13 1   
    22    12    14 ar  
    23    13    25 1   
    24    13    26 1   
    25    14    15 1   
    26    15    16 2   
    27    16    27 1   
    28    17    18 1   
    29    17    28 1   
    30    17    29 1   
    31    18    19 1   
    32    18    30 1   
    33    19    31 1   
@<TRIPOS>SUBSTRUCTURE
     1 2FD         1 TEMP              0 ****  ****    0 ROOT
