@<TRIPOS>MOLECULE
2FD
   31    33     1     0     0
SMALL
No Charge or Current Charge


@<TRIPOS>ATOM
      1 O5          -5.0660     1.1730    -1.4110 oh         1 2FD      -0.705000
      2 C5          -4.4720     0.8870    -0.1300 c3         1 2FD       0.159600
      3 C4          -3.4040    -0.2360    -0.2360 c5         1 2FD       0.155300
      4 O4          -2.2220     0.2390    -0.9220 os         1 2FD      -0.436000
      5 C1          -1.1030    -0.6030    -0.5550 c5         1 2FD       0.326300
      6 N9           0.0210     0.2490    -0.1850 na         1 2FD      -0.306300
      7 C9           1.3520    -0.0720    -0.1570 ca         1 2FD       0.138500
      8 N3           1.9860    -1.2180    -0.4670 nb         1 2FD      -0.256000
      9 C2           3.3300    -1.1930    -0.3280 ca         1 2FD       0.409200
     10 F            3.9820    -2.3340    -0.6370 f          1 2FD      -0.207200
     11 N1           4.1000    -0.1620     0.0830 nb         1 2FD      -0.331000
     12 C6           3.4350     0.9580     0.3860 ca         1 2FD       0.478900
     13 N6           4.1950     2.0050     0.8000 nv         1 2FD      -1.053900
     14 C7           2.0310     1.0400     0.2730 ca         1 2FD      -0.115600
     15 N7           1.1830     2.1120     0.5320 nc         1 2FD      -0.554100
     16 C8          -0.0250     1.5890     0.2420 cd         1 2FD       0.413700
     17 C10         -1.6220    -1.5220     0.5900 c5         1 2FD      -0.160400
     18 C3          -2.8300    -0.7210     1.1230 c5         1 2FD       0.138300
     19 O3          -3.7320    -1.5500     1.8620 oh         1 2FD      -0.703000
     20 H5          -5.6930     1.9220    -1.2770 ho         1 2FD       0.507000
     21 H5'1        -5.2490     0.5630     0.5760 h1         1 2FD       0.028700
     22 H5'2        -4.0010     1.7870     0.2870 h1         1 2FD       0.028700
     23 H4          -3.8300    -1.0800    -0.7960 h1         1 2FD       0.091700
     24 H1          -0.7720    -1.2000    -1.4160 h2         1 2FD       0.107700
     25 HN61         5.1850     1.9900     0.5730 hn         1 2FD       0.512000
     26 HN62         3.7460     2.9170     0.8180 hn         1 2FD       0.512000
     27 H8          -0.9680     2.1180     0.3220 h5         1 2FD       0.080800
     28 H2'1        -1.9240    -2.4970     0.1900 hc         1 2FD       0.088700
     29 H2'2        -0.8630    -1.7080     1.3570 hc         1 2FD       0.088700
     30 H3          -2.5020     0.1360     1.7300 h1         1 2FD       0.045700
     31 H6          -3.2740    -1.8060     2.6980 ho         1 2FD       0.516000
@<TRIPOS>BOND
     1     1     2 1   
     2     1    20 1   
     3     2     3 1   
     4     2    21 1   
     5     2    22 1   
     6     3     4 1   
     7     3    18 1   
     8     3    23 1   
     9     4     5 1   
    10     5     6 1   
    11     5    17 1   
    12     5    24 1   
    13     6     7 1   
    14     6    16 1   
    15     7     8 ar  
    16     7    14 ar  
    17     8     9 ar  
    18     9    10 1   
    19     9    11 ar  
    20    11    12 ar  
    21    12    13 1   
    22    12    14 ar  
    23    13    25 1   
    24    13    26 1   
    25    14    15 1   
    26    15    16 2   
    27    16    27 1   
    28    17    18 1   
    29    17    28 1   
    30    17    29 1   
    31    18    19 1   
    32    18    30 1   
    33    19    31 1   
@<TRIPOS>SUBSTRUCTURE
     1 2FD         1 TEMP              0 ****  ****    0 ROOT
