@<TRIPOS>MOLECULE
2FF
   55    59     1     0     0
SMALL
abcg2


@<TRIPOS>ATOM
      1 C1          -4.8870    -0.3710    -0.7500 ca         1 2FF      -0.026000
      2 C2          -4.2030    -0.6000     0.4260 ca         1 2FF      -0.175300
      3 C3          -4.6100    -1.6110     1.2860 ca         1 2FF       0.128100
      4 C4          -5.7010    -2.4090     1.0060 ca         1 2FF      -0.141000
      5 C5          -6.3870    -2.1590    -0.1820 ca         1 2FF      -0.074000
      6 C6          -6.0070    -1.1500    -1.0610 ca         1 2FF      -0.126300
      7 O13         -3.8270    -1.7160     2.3820 os         1 2FF      -0.331100
      8 C8          -2.9890    -0.5520     2.4210 c5         1 2FF       0.148600
      9 C7          -2.9580     0.0330     0.9890 c5         1 2FF      -0.018700
     10 C10         -1.7200    -0.4370     0.2080 c6         1 2FF      -0.091900
     11 C11         -0.4290     0.2120     0.6980 c6         1 2FF       0.094000
     12 N22         -0.5540     1.6630     0.6940 n          1 2FF      -0.391800
     13 C13         -1.6740     2.1330     1.4970 c6         1 2FF       0.094000
     14 C14         -2.9920     1.5610     0.9950 c6         1 2FF      -0.091900
     15 C15         -0.0150     2.4910    -0.2250 c          1 2FF       0.539600
     16 C32          1.2320     2.0910    -0.9110 cc         1 2FF       0.071500
     17 O35          2.1490     1.3130    -0.3000 os         1 2FF      -0.218000
     18 C18          3.2060     1.1970    -1.1340 cc         1 2FF       0.272000
     19 C19          2.9720     1.8990    -2.2820 cd         1 2FF      -0.163000
     20 C20          1.6950     2.4870    -2.1280 cd         1 2FF      -0.118000
     21 C21          4.3010     0.4320    -0.7030 cg         1 2FF      -0.214000
     22 C22          5.2500    -0.2230    -0.3420 ch         1 2FF      -0.055000
     23 C46          6.3720    -0.9880     0.0760 ca         1 2FF       0.015000
     24 C24          7.5540    -0.9680    -0.6720 ca         1 2FF      -0.082500
     25 C25          8.6470    -1.7110    -0.2590 ca         1 2FF      -0.113000
     26 C26          8.5760    -2.4780     0.8980 ca         1 2FF      -0.097000
     27 C27          7.4040    -2.5010     1.6440 ca         1 2FF      -0.113000
     28 C28          6.3040    -1.7620     1.2400 ca         1 2FF      -0.082500
     29 O61         -0.4780     3.5910    -0.5010 o          1 2FF      -0.584100
     30 C30         -6.7900    -0.8960    -2.3230 c3         1 2FF       0.201100
     31 N64         -5.9190    -0.8570    -3.4890 n8         1 2FF      -0.997200
     32 H1          -4.5630     0.4040    -1.4350 ha         1 2FF       0.131000
     33 H4          -6.0180    -3.1970     1.6770 ha         1 2FF       0.130000
     34 H5          -7.2480    -2.7710    -0.4230 ha         1 2FF       0.110000
     35 H81         -3.4230     0.1660     3.1260 h1         1 2FF       0.058200
     36 H82         -2.0120    -0.8530     2.7990 h1         1 2FF       0.058200
     37 H101        -1.6170    -1.5230     0.2810 hc         1 2FF       0.061450
     38 H102        -1.8580    -0.2020    -0.8510 hc         1 2FF       0.061450
     39 H111        -0.1930    -0.1120     1.7160 h1         1 2FF       0.061700
     40 H112         0.3900    -0.1180     0.0690 h1         1 2FF       0.061700
     41 H131        -1.4940     1.8200     2.5300 h1         1 2FF       0.061700
     42 H132        -1.6970     3.2190     1.4930 h1         1 2FF       0.061700
     43 H141        -3.1810     1.9320    -0.0170 hc         1 2FF       0.061450
     44 H142        -3.8100     1.9190     1.6250 hc         1 2FF       0.061450
     45 H19          3.6410     1.9810    -3.1220 ha         1 2FF       0.151000
     46 H20          1.1790     3.1190    -2.8330 ha         1 2FF       0.158000
     47 H24          7.6090    -0.3690    -1.5710 ha         1 2FF       0.121500
     48 H25          9.5580    -1.6890    -0.8410 ha         1 2FF       0.117000
     49 H26          9.4310    -3.0590     1.2160 ha         1 2FF       0.116000
     50 H27          7.3450    -3.0970     2.5450 ha         1 2FF       0.117000
     51 H28          5.3910    -1.7800     1.8200 ha         1 2FF       0.121500
     52 H301        -7.5920    -1.6420    -2.3920 h1         1 2FF       0.033700
     53 H302        -7.2870     0.0760    -2.2500 h1         1 2FF       0.033700
     54 H641        -5.5360    -1.7790    -3.6500 hn         1 2FF       0.395000
     55 H642        -6.4720    -0.6390    -4.3090 hn         1 2FF       0.395000
@<TRIPOS>BOND
     1     1     2 ar  
     2     1     6 ar  
     3     1    32 1   
     4     2     3 ar  
     5     2     9 1   
     6     3     4 ar  
     7     3     7 1   
     8     4     5 ar  
     9     4    33 1   
    10     5     6 ar  
    11     5    34 1   
    12     6    30 1   
    13     7     8 1   
    14     8     9 1   
    15     8    35 1   
    16     8    36 1   
    17     9    10 1   
    18     9    14 1   
    19    10    11 1   
    20    10    37 1   
    21    10    38 1   
    22    11    12 1   
    23    11    39 1   
    24    11    40 1   
    25    12    13 1   
    26    12    15 1   
    27    13    14 1   
    28    13    41 1   
    29    13    42 1   
    30    14    43 1   
    31    14    44 1   
    32    15    16 1   
    33    15    29 2   
    34    16    17 1   
    35    16    20 2   
    36    17    18 1   
    37    18    19 2   
    38    18    21 1   
    39    19    20 1   
    40    19    45 1   
    41    20    46 1   
    42    21    22 3   
    43    22    23 1   
    44    23    24 ar  
    45    23    28 ar  
    46    24    25 ar  
    47    24    47 1   
    48    25    26 ar  
    49    25    48 1   
    50    26    27 ar  
    51    26    49 1   
    52    27    28 ar  
    53    27    50 1   
    54    28    51 1   
    55    30    31 1   
    56    30    52 1   
    57    30    53 1   
    58    31    54 1   
    59    31    55 1   
@<TRIPOS>SUBSTRUCTURE
     1 2FF         1 TEMP              0 ****  ****    0 ROOT
