@<TRIPOS>MOLECULE
2FF
   55    59     1     0     0
SMALL
No Charge or Current Charge


@<TRIPOS>ATOM
      1 C1          -4.7600    -0.8730    -0.7750 ca         1 2FF      -0.026000
      2 C2          -3.9750    -0.6020     0.3600 ca         1 2FF      -0.175300
      3 C3          -4.1200    -1.3460     1.5080 ca         1 2FF       0.128100
      4 C4          -5.0390    -2.3980     1.5910 ca         1 2FF      -0.141000
      5 C5          -5.8430    -2.6810     0.4680 ca         1 2FF      -0.074000
      6 C6          -5.7080    -1.9200    -0.7180 ca         1 2FF      -0.126300
      7 O13         -3.2760    -0.9830     2.5200 os         1 2FF      -0.331100
      8 C8          -2.7490     0.3190     2.1010 c5         1 2FF       0.148600
      9 C7          -2.8880     0.4220     0.5270 c5         1 2FF      -0.018700
     10 C10         -1.6310     0.0150    -0.2660 c6         1 2FF      -0.091900
     11 C11         -0.4520     0.9990    -0.0690 c6         1 2FF       0.094000
     12 N22         -0.7740     2.4650    -0.0680 n          1 2FF      -0.391800
     13 C13         -2.1840     2.8620     0.2620 c6         1 2FF       0.094000
     14 C14         -3.2850     1.8130    -0.0060 c6         1 2FF      -0.091900
     15 C15          0.2280     3.4850    -0.0580 c          1 2FF       0.539600
     16 C32          1.6870     3.1150    -0.1020 cc         1 2FF       0.071500
     17 O35          2.2220     1.8390    -0.0970 os         1 2FF      -0.218000
     18 C18          3.5890     1.9790    -0.1220 cc         1 2FF       0.272000
     19 C19          3.9240     3.3020    -0.1370 cd         1 2FF      -0.163000
     20 C20          2.7140     4.0280    -0.1200 cd         1 2FF      -0.118000
     21 C21          4.4410     0.8440    -0.1280 cg         1 2FF      -0.214000
     22 C22          5.1250    -0.1660    -0.1120 ch         1 2FF      -0.055000
     23 C46          5.9150    -1.3520    -0.0790 ca         1 2FF       0.015000
     24 C24          7.2450    -1.3300    -0.5430 ca         1 2FF      -0.082500
     25 C25          8.0240    -2.5000    -0.5100 ca         1 2FF      -0.113000
     26 C26          7.4770    -3.6960    -0.0130 ca         1 2FF      -0.097000
     27 C27          6.1500    -3.7220     0.4500 ca         1 2FF      -0.113000
     28 C28          5.3700    -2.5520     0.4180 ca         1 2FF      -0.082500
     29 O61         -0.1130     4.6630    -0.0070 o          1 2FF      -0.584100
     30 C30         -6.5780    -2.2240    -1.9280 c3         1 2FF       0.201100
     31 N64         -5.8800    -3.1060    -2.8780 n8         1 2FF      -0.997200
     32 H1          -4.6360    -0.2940    -1.6870 ha         1 2FF       0.131000
     33 H4          -5.1310    -2.9800     2.5040 ha         1 2FF       0.130000
     34 H5          -6.5670    -3.4910     0.5180 ha         1 2FF       0.110000
     35 H81         -3.3570     1.0930     2.5890 h1         1 2FF       0.058200
     36 H82         -1.7160     0.4350     2.4550 h1         1 2FF       0.058200
     37 H101        -1.3120    -0.9970     0.0190 hc         1 2FF       0.061450
     38 H102        -1.8740    -0.0370    -1.3360 hc         1 2FF       0.061450
     39 H111         0.0480     0.7590     0.8800 h1         1 2FF       0.061700
     40 H112         0.2590     0.7890    -0.8800 h1         1 2FF       0.061700
     41 H131        -2.2130     3.1300     1.3280 h1         1 2FF       0.061700
     42 H132        -2.4460     3.7720    -0.2950 h1         1 2FF       0.061700
     43 H141        -3.4730     1.7640    -1.0870 hc         1 2FF       0.061450
     44 H142        -4.2270     2.1420     0.4530 hc         1 2FF       0.061450
     45 H19          4.9300     3.7070    -0.1540 ha         1 2FF       0.151000
     46 H20          2.6090     5.1090    -0.1210 ha         1 2FF       0.158000
     47 H24          7.6740    -0.4070    -0.9280 ha         1 2FF       0.121500
     48 H25          9.0510    -2.4790    -0.8690 ha         1 2FF       0.117000
     49 H26          8.0800    -4.6010     0.0120 ha         1 2FF       0.116000
     50 H27          5.7260    -4.6470     0.8350 ha         1 2FF       0.117000
     51 H28          4.3440    -2.5790     0.7780 ha         1 2FF       0.121500
     52 H301        -7.5080    -2.7150    -1.6050 h1         1 2FF       0.033700
     53 H302        -6.8460    -1.2900    -2.4400 h1         1 2FF       0.033700
     54 H641        -5.6800    -3.9970    -2.4090 hn         1 2FF       0.395000
     55 H642        -6.5310    -3.3660    -3.6290 hn         1 2FF       0.395000
@<TRIPOS>BOND
     1     1     2 ar  
     2     1     6 ar  
     3     1    32 1   
     4     2     3 ar  
     5     2     9 1   
     6     3     4 ar  
     7     3     7 1   
     8     4     5 ar  
     9     4    33 1   
    10     5     6 ar  
    11     5    34 1   
    12     6    30 1   
    13     7     8 1   
    14     8     9 1   
    15     8    35 1   
    16     8    36 1   
    17     9    10 1   
    18     9    14 1   
    19    10    11 1   
    20    10    37 1   
    21    10    38 1   
    22    11    12 1   
    23    11    39 1   
    24    11    40 1   
    25    12    13 1   
    26    12    15 1   
    27    13    14 1   
    28    13    41 1   
    29    13    42 1   
    30    14    43 1   
    31    14    44 1   
    32    15    16 1   
    33    15    29 2   
    34    16    17 1   
    35    16    20 2   
    36    17    18 1   
    37    18    19 2   
    38    18    21 1   
    39    19    20 1   
    40    19    45 1   
    41    20    46 1   
    42    21    22 3   
    43    22    23 1   
    44    23    24 ar  
    45    23    28 ar  
    46    24    25 ar  
    47    24    47 1   
    48    25    26 ar  
    49    25    48 1   
    50    26    27 ar  
    51    26    49 1   
    52    27    28 ar  
    53    27    50 1   
    54    28    51 1   
    55    30    31 1   
    56    30    52 1   
    57    30    53 1   
    58    31    54 1   
    59    31    55 1   
@<TRIPOS>SUBSTRUCTURE
     1 2FF         1 TEMP              0 ****  ****    0 ROOT
