@<TRIPOS>MOLECULE
2FG
   23    23     1     0     0
SMALL
No Charge or Current Charge


@<TRIPOS>ATOM
      1 C1          -6.0130    32.4470    -9.1750 c6         1 2FG       0.387300
      2 O1          -5.7030    33.8030    -8.8580 oh         1 2FG      -0.629000
      3 C2          -7.1440    31.8900    -8.2600 c6         1 2FG       0.141300
      4 F2          -6.6610    31.8160    -6.9290 f          1 2FG      -0.260000
      5 C3          -7.5790    30.4670    -8.7260 c6         1 2FG       0.156300
      6 O3          -8.7100    29.9910    -7.9770 oh         1 2FG      -0.623000
      7 C4          -7.9450    30.4870   -10.2420 c6         1 2FG       0.104300
      8 O4          -9.1670    31.2440   -10.4170 oh         1 2FG      -0.687000
      9 C5          -6.7390    31.0960   -11.0370 c6         1 2FG       0.146300
     10 O5          -6.4330    32.4280   -10.5490 os         1 2FG      -0.427000
     11 C6          -6.9850    31.1650   -12.5810 c3         1 2FG       0.171600
     12 O6          -5.8500    31.6710   -13.3120 oh         1 2FG      -0.706000
     13 H1          -5.1100    31.8270    -9.0640 h2         1 2FG       0.020700
     14 HO1         -5.3920    33.7910    -7.9270 ho         1 2FG       0.466000
     15 H2          -8.0020    32.5760    -8.2740 h1         1 2FG       0.109700
     16 H3          -6.7280    29.7840    -8.5850 h1         1 2FG       0.036700
     17 HO3         -9.4890    30.3300    -8.4750 ho         1 2FG       0.444000
     18 H4          -8.0960    29.4500   -10.5770 h1         1 2FG       0.033700
     19 HO4         -9.5090    31.0600   -11.3230 ho         1 2FG       0.502000
     20 H5          -5.8570    30.4560   -10.8780 h1         1 2FG       0.048700
     21 H61         -7.2340    30.1540   -12.9330 h1         1 2FG       0.027700
     22 H62         -7.8600    31.8010   -12.7670 h1         1 2FG       0.027700
     23 HO6         -6.1260    31.7470   -14.2550 ho         1 2FG       0.507000
@<TRIPOS>BOND
     1     1     2 1   
     2     1     3 1   
     3     1    10 1   
     4     1    13 1   
     5     2    14 1   
     6     3     4 1   
     7     3     5 1   
     8     3    15 1   
     9     5     6 1   
    10     5     7 1   
    11     5    16 1   
    12     6    17 1   
    13     7     8 1   
    14     7     9 1   
    15     7    18 1   
    16     8    19 1   
    17     9    10 1   
    18     9    11 1   
    19     9    20 1   
    20    11    12 1   
    21    11    21 1   
    22    11    22 1   
    23    12    23 1   
@<TRIPOS>SUBSTRUCTURE
     1 2FG         1 TEMP              0 ****  ****    0 ROOT
