@<TRIPOS>MOLECULE
2FG
   23    23     1     0     0
SMALL
abcg2


@<TRIPOS>ATOM
      1 C1          -6.0510    32.3930    -9.1670 c6         1 2FG       0.387300
      2 O1          -5.6990    33.6900    -8.8350 oh         1 2FG      -0.629000
      3 C2          -7.2280    31.9090    -8.3210 c6         1 2FG       0.141300
      4 F2          -6.7840    31.7980    -7.0050 f          1 2FG      -0.260000
      5 C3          -7.7210    30.5590    -8.7970 c6         1 2FG       0.156300
      6 O3          -8.8280    30.1930    -8.0210 oh         1 2FG      -0.623000
      7 C4          -8.0270    30.6240   -10.2970 c6         1 2FG       0.104300
      8 O4          -9.1500    31.4470   -10.4890 oh         1 2FG      -0.687000
      9 C5          -6.7840    31.1530   -11.0190 c6         1 2FG       0.146300
     10 O5          -6.4220    32.4220   -10.5130 os         1 2FG      -0.427000
     11 C6          -6.9900    31.2750   -12.5130 c3         1 2FG       0.171600
     12 O6          -5.7560    31.5670   -13.1210 oh         1 2FG      -0.706000
     13 H1          -5.2060    31.6970    -9.0230 h2         1 2FG       0.020700
     14 HO1         -4.8970    33.6840    -8.3060 ho         1 2FG       0.466000
     15 H2          -8.0320    32.6520    -8.3410 h1         1 2FG       0.109700
     16 H3          -6.8960    29.8390    -8.6760 h1         1 2FG       0.036700
     17 HO3         -9.0500    29.2770    -8.2170 ho         1 2FG       0.444000
     18 H4          -8.2150    29.6010   -10.6510 h1         1 2FG       0.033700
     19 HO4         -9.5780    31.2100   -11.3160 ho         1 2FG       0.502000
     20 H5          -5.9690    30.4300   -10.8410 h1         1 2FG       0.048700
     21 H61         -7.4060    30.3230   -12.8720 h1         1 2FG       0.027700
     22 H62         -7.7370    32.0520   -12.7180 h1         1 2FG       0.027700
     23 HO6         -5.9060    31.6860   -14.0630 ho         1 2FG       0.507000
@<TRIPOS>BOND
     1     1     2 1   
     2     1     3 1   
     3     1    10 1   
     4     1    13 1   
     5     2    14 1   
     6     3     4 1   
     7     3     5 1   
     8     3    15 1   
     9     5     6 1   
    10     5     7 1   
    11     5    16 1   
    12     6    17 1   
    13     7     8 1   
    14     7     9 1   
    15     7    18 1   
    16     8    19 1   
    17     9    10 1   
    18     9    11 1   
    19     9    20 1   
    20    11    12 1   
    21    11    21 1   
    22    11    22 1   
    23    12    23 1   
@<TRIPOS>SUBSTRUCTURE
     1 2FG         1 TEMP              0 ****  ****    0 ROOT
