@<TRIPOS>MOLECULE
2FM
   19    18     1     0     0
SMALL
No Charge or Current Charge


@<TRIPOS>ATOM
      1 OXT         15.2930    10.7450    21.9590 o          1 2FM      -0.725500
      2 C           15.1300    11.2740    20.8650 c          1 2FM       0.728000
      3 O           15.6980    12.3060    20.5310 o          1 2FM      -0.725500
      4 CA          14.2020    10.5470    19.8020 c3         1 2FM       0.024500
      5 N           14.6220     9.1590    19.3840 n8         1 2FM      -0.990200
      6 CB          12.7240    10.5440    20.2770 c3         1 2FM      -0.101400
      7 CG          11.7020    10.2020    19.1720 c3         1 2FM       0.090600
      8 SD           9.9780    10.3290    19.8350 ss         1 2FM      -0.477000
      9 CE           9.0080     9.8940    18.3190 c3         1 2FM       0.296300
     10 FZ1          9.3320     8.6590    17.8740 f          1 2FM      -0.116500
     11 FZ2          9.2690    10.7570    17.3120 f          1 2FM      -0.116500
     12 HA          14.2420    11.1710    18.8980 h1         1 2FM       0.044700
     13 HN1         14.6640     8.5600    20.2180 hn         1 2FM       0.377500
     14 HN2         13.8910     8.7330    18.8050 hn         1 2FM       0.377500
     15 HB1         12.4840    11.5420    20.6630 hc         1 2FM       0.060700
     16 HB2         12.6050     9.8480    21.1160 hc         1 2FM       0.060700
     17 HG1         11.8680     9.1820    18.8030 h1         1 2FM       0.059700
     18 HG2         11.8160    10.9000    18.3320 h1         1 2FM       0.059700
     19 HE           7.9400     9.9260    18.5580 h3         1 2FM       0.071700
@<TRIPOS>BOND
     1     1     2 1   
     2     2     3 1   
     3     2     4 1   
     4     4     5 1   
     5     4     6 1   
     6     4    12 1   
     7     5    13 1   
     8     5    14 1   
     9     6     7 1   
    10     6    15 1   
    11     6    16 1   
    12     7     8 1   
    13     7    17 1   
    14     7    18 1   
    15     8     9 1   
    16     9    10 1   
    17     9    11 1   
    18     9    19 1   
@<TRIPOS>SUBSTRUCTURE
     1 2FM         1 TEMP              0 ****  ****    0 ROOT
