@<TRIPOS>MOLECULE
2FM
   19    18     1     0     0
SMALL
abcg2


@<TRIPOS>ATOM
      1 OXT         15.5420    10.3030    21.6970 o          1 2FM      -0.725500
      2 C           15.0620    11.1220    20.8890 c          1 2FM       0.728000
      3 O           15.1680    12.3630    20.9230 o          1 2FM      -0.725500
      4 CA          14.1840    10.5400    19.7530 c3         1 2FM       0.024500
      5 N           14.6150     9.1970    19.4110 n8         1 2FM      -0.990200
      6 CB          12.7150    10.6600    20.2050 c3         1 2FM      -0.101400
      7 CG          11.7320    10.2280    19.1270 c3         1 2FM       0.090600
      8 SD          10.0410    10.4740    19.7650 ss         1 2FM      -0.477000
      9 CE           9.0580     9.8920    18.3930 c3         1 2FM       0.296300
     10 FZ1          9.3190     8.5920    18.1000 f          1 2FM      -0.116500
     11 FZ2          9.3220    10.5870    17.2560 f          1 2FM      -0.116500
     12 HA          14.3050    11.1720    18.8660 h1         1 2FM       0.044700
     13 HN1         14.6210     8.6330    20.2520 hn         1 2FM       0.377500
     14 HN2         13.9730     8.7580    18.7630 hn         1 2FM       0.377500
     15 HB1         12.5170    11.7000    20.4770 hc         1 2FM       0.060700
     16 HB2         12.5660    10.0560    21.1050 hc         1 2FM       0.060700
     17 HG1         11.8590     9.1760    18.8730 h1         1 2FM       0.059700
     18 HG2         11.8670    10.8270    18.2260 h1         1 2FM       0.059700
     19 HE           8.0020     9.9990    18.6440 h3         1 2FM       0.071700
@<TRIPOS>BOND
     1     1     2 1   
     2     2     3 1   
     3     2     4 1   
     4     4     5 1   
     5     4     6 1   
     6     4    12 1   
     7     5    13 1   
     8     5    14 1   
     9     6     7 1   
    10     6    15 1   
    11     6    16 1   
    12     7     8 1   
    13     7    17 1   
    14     7    18 1   
    15     8     9 1   
    16     9    10 1   
    17     9    11 1   
    18     9    19 1   
@<TRIPOS>SUBSTRUCTURE
     1 2FM         1 TEMP              0 ****  ****    0 ROOT
