@<TRIPOS>MOLECULE
2FN
   89    93     1     0     0
SMALL
abcg2


@<TRIPOS>ATOM
      1 C2           8.0310    -2.2170    -1.2220 cc         1 2FN      -0.023000
      2 C4           8.8320    -1.7300    -0.2360 cd         1 2FN      -0.128000
      3 C5           8.2710    -0.5840     0.3760 cd         1 2FN      -0.075000
      4 C6           7.0640    -0.2280    -0.1600 cc         1 2FN      -0.292500
      5 O8           6.5340     1.5390     1.3310 os         1 2FN      -0.059700
      6 C7           6.1890     0.8410     0.2430 cc         1 2FN       0.261500
      7 O31          0.2070     0.0890     2.0440 o          1 2FN      -0.586100
      8 C21          0.4600    -0.2260     0.8930 c          1 2FN       0.614100
      9 C22          0.8440    -1.6310     0.4580 c6         1 2FN      -0.139700
     10 C30          2.2640    -1.6910    -0.1150 c6         1 2FN      -0.060900
     11 C29          3.3250    -1.6190     0.9690 c6         1 2FN       0.161300
     12 N25          3.1850    -2.6930     1.9380 n3         1 2FN      -0.717600
     13 C26          4.2840    -2.7070     2.9090 c3         1 2FN       0.186500
     14 C28          4.1340    -3.8450     3.9170 c3         1 2FN      -0.091100
     15 C27          5.6400    -2.8570     2.2210 c3         1 2FN      -0.091100
     16 C24          1.8800    -2.5930     2.5820 c6         1 2FN       0.161300
     17 C23          0.7380    -2.6600     1.5770 c6         1 2FN      -0.060900
     18 C19          0.1080     2.0280     0.0780 ca         1 2FN      -0.123000
     19 C14          1.1410     2.9240     0.3630 ca         1 2FN       0.182100
     20 O13          2.3660     2.3780     0.4520 os         1 2FN      -0.331100
     21 C11          4.6750     2.3410     0.6730 cd         1 2FN       0.273300
     22 N9           5.5800     2.4720     1.5980 nc         1 2FN      -0.347300
     23 C10          5.0080     1.3090    -0.2350 cd         1 2FN      -0.222000
     24 S3           6.5940    -1.3010    -1.4290 ss         1 2FN       0.281000
     25 CL1          8.3280    -3.5710    -2.2110 cl         1 2FN      -0.128000
     26 C18         -1.2090     2.4870    -0.0110 ca         1 2FN       0.190100
     27 C17         -1.4870     3.8430     0.1660 ca         1 2FN      -0.233000
     28 C16         -0.4430     4.7130     0.4340 ca         1 2FN      -0.029000
     29 C15          0.8690     4.2790     0.5380 ca         1 2FN      -0.233000
     30 O32         -2.1340     1.5540    -0.2760 os         1 2FN      -0.333100
     31 C33         -3.4940     1.9450    -0.3580 c3         1 2FN       0.164600
     32 C34         -4.3150     0.7050    -0.6520 c3         1 2FN      -0.087400
     33 C35         -5.7890     1.0520    -0.7190 c3         1 2FN       0.166600
     34 O36         -6.5090    -0.1270    -1.0370 os         1 2FN      -0.451000
     35 C37         -7.8710     0.0400    -1.1600 c6         1 2FN       0.363300
     36 C46         -8.4420    -1.1550    -1.9190 c6         1 2FN       0.115300
     37 O47         -7.9720    -1.2000    -3.2430 oh         1 2FN      -0.724000
     38 C44         -9.9580    -1.0260    -1.9700 c6         1 2FN       0.139300
     39 O45        -10.5700    -2.1700    -2.5150 oh         1 2FN      -0.664000
     40 C42        -10.5360    -0.8190    -0.5740 c6         1 2FN       0.142300
     41 O42        -11.9080    -0.5160    -0.6330 oh         1 2FN      -0.718000
     42 C39         -9.8200     0.3430     0.1170 c6         1 2FN       0.181300
     43 O38         -8.4310     0.0970     0.1260 os         1 2FN      -0.467000
     44 C40        -10.2720     0.5150     1.5520 c3         1 2FN       0.171600
     45 O41         -9.6360     1.6470     2.0940 oh         1 2FN      -0.714000
     46 H1           9.7790    -2.1670     0.0410 ha         1 2FN       0.152000
     47 H2           8.7500    -0.0510     1.1850 ha         1 2FN       0.153000
     48 H3           0.1450    -1.9070    -0.3400 hc         1 2FN       0.058700
     49 H4           2.3740    -2.6350    -0.6560 hc         1 2FN       0.047700
     50 H5           2.4420    -0.8960    -0.8430 hc         1 2FN       0.047700
     51 H6           4.2950    -1.6920     0.4790 h1         1 2FN       0.039200
     52 H7           3.3020    -0.6250     1.4530 h1         1 2FN       0.039200
     53 H9           4.2940    -1.7570     3.4770 h1         1 2FN       0.023700
     54 H10          4.0480    -4.8050     3.4040 hc         1 2FN       0.036200
     55 H11          5.0160    -3.8840     4.5570 hc         1 2FN       0.036200
     56 H12          3.2730    -3.7330     4.5740 hc         1 2FN       0.036200
     57 H13          5.9330    -1.9860     1.6360 hc         1 2FN       0.036200
     58 H14          6.4180    -3.0030     2.9710 hc         1 2FN       0.036200
     59 H15          5.6430    -3.7250     1.5590 hc         1 2FN       0.036200
     60 H16          1.7510    -3.4260     3.2720 h1         1 2FN       0.039200
     61 H17          1.8050    -1.6740     3.1840 h1         1 2FN       0.039200
     62 H18         -0.2110    -2.5720     2.1080 hc         1 2FN       0.047700
     63 H19          0.7450    -3.6510     1.1140 hc         1 2FN       0.047700
     64 H20          0.5940     0.3520    -1.0610 hn         1 2FN       0.152000
     65 H21          3.5690     3.9490    -0.1670 h1         1 2FN       0.061200
     66 H22          3.4090     3.7810     1.5900 h1         1 2FN       0.061200
     67 H23          4.4520     0.9770    -1.0960 ha         1 2FN       0.161000
     68 H24         -2.4950     4.2280     0.0980 ha         1 2FN       0.122000
     69 H25         -0.6580     5.7650     0.5690 ha         1 2FN       0.113000
     70 H26          1.6500     4.9950     0.7510 ha         1 2FN       0.122000
     71 H27         -3.8140     2.4040     0.5840 h1         1 2FN       0.037700
     72 H28         -3.6300     2.6870    -1.1530 h1         1 2FN       0.037700
     73 H29         -3.9960     0.2710    -1.6030 hc         1 2FN       0.069200
     74 H30         -4.1470    -0.0390     0.1310 hc         1 2FN       0.069200
     75 H31         -6.1210     1.4650     0.2390 h1         1 2FN       0.037200
     76 H32         -5.9680     1.8170    -1.4860 h1         1 2FN       0.037200
     77 H33         -8.1090     0.9710    -1.7100 h2         1 2FN       0.033700
     78 H34         -8.1760    -2.0700    -1.3680 h1         1 2FN       0.068700
     79 H35         -7.0380    -1.4330    -3.2280 ho         1 2FN       0.524000
     80 H36        -10.2040    -0.1320    -2.5650 h1         1 2FN       0.052700
     81 H37        -10.3600    -2.2130    -3.4530 ho         1 2FN       0.466000
     82 H38        -10.3580    -1.7320     0.0170 h1         1 2FN       0.056700
     83 H39        -12.3620    -1.2580    -1.0460 ho         1 2FN       0.525000
     84 H40        -10.0390     1.2700    -0.4390 h1         1 2FN       0.058700
     85 H41        -11.3620     0.6190     1.5620 h1         1 2FN       0.037700
     86 H42        -10.0300    -0.3990     2.1130 h1         1 2FN       0.037700
     87 H43         -9.9690     1.7760     2.9860 ho         1 2FN       0.505000
     88 C12          3.4780     3.2250     0.6500 c3         1 2FN       0.127300
     89 N20          0.3970     0.6650    -0.1230 ns         1 2FN      -0.152000
@<TRIPOS>BOND
     1     1     2 2   
     2     1    24 1   
     3     1    25 1   
     4     2     3 1   
     5     2    46 1   
     6     3     4 2   
     7     3    47 1   
     8     4     6 1   
     9     4    24 1   
    10     5     6 1   
    11     5    22 1   
    12     6    23 2   
    13     7     8 2   
    14     8     9 1   
    15     8    89 1   
    16     9    10 1   
    17     9    17 1   
    18     9    48 1   
    19    10    11 1   
    20    10    49 1   
    21    10    50 1   
    22    11    12 1   
    23    11    51 1   
    24    11    52 1   
    25    12    13 1   
    26    12    16 1   
    27    13    14 1   
    28    13    15 1   
    29    13    53 1   
    30    14    54 1   
    31    14    55 1   
    32    14    56 1   
    33    15    57 1   
    34    15    58 1   
    35    15    59 1   
    36    16    17 1   
    37    16    60 1   
    38    16    61 1   
    39    17    62 1   
    40    17    63 1   
    41    18    19 ar  
    42    18    26 ar  
    43    18    89 1   
    44    19    20 1   
    45    19    29 ar  
    46    20    88 1   
    47    21    22 2   
    48    21    23 1   
    49    21    88 1   
    50    23    67 1   
    51    26    27 ar  
    52    26    30 1   
    53    27    28 ar  
    54    27    68 1   
    55    28    29 ar  
    56    28    69 1   
    57    29    70 1   
    58    30    31 1   
    59    31    32 1   
    60    31    71 1   
    61    31    72 1   
    62    32    33 1   
    63    32    73 1   
    64    32    74 1   
    65    33    34 1   
    66    33    75 1   
    67    33    76 1   
    68    34    35 1   
    69    35    36 1   
    70    35    43 1   
    71    35    77 1   
    72    36    37 1   
    73    36    38 1   
    74    36    78 1   
    75    37    79 1   
    76    38    39 1   
    77    38    40 1   
    78    38    80 1   
    79    39    81 1   
    80    40    41 1   
    81    40    42 1   
    82    40    82 1   
    83    41    83 1   
    84    42    43 1   
    85    42    44 1   
    86    42    84 1   
    87    44    45 1   
    88    44    85 1   
    89    44    86 1   
    90    45    87 1   
    91    64    89 1   
    92    65    88 1   
    93    66    88 1   
@<TRIPOS>SUBSTRUCTURE
     1 2FN         1 TEMP              0 ****  ****    0 ROOT
