@<TRIPOS>MOLECULE
2FN
   89    93     1     0     0
SMALL
No Charge or Current Charge


@<TRIPOS>ATOM
      1 C2           7.9250    -1.9690    -1.2130 cc         1 2FN      -0.023000
      2 C4           8.5610    -1.7130    -0.0240 cd         1 2FN      -0.128000
      3 C5           8.0100    -0.6060     0.6780 cd         1 2FN      -0.075000
      4 C6           6.9510    -0.0300     0.0150 cc         1 2FN      -0.292500
      5 O8           6.4780     1.6740     1.7400 os         1 2FN      -0.059700
      6 C7           6.2060     1.0760     0.5360 cc         1 2FN       0.261500
      7 O31          1.6280     0.4420     1.8830 o          1 2FN      -0.586100
      8 C21          1.1450     0.0750     0.8170 c          1 2FN       0.614100
      9 C22          1.4030    -1.3420     0.2490 c6         1 2FN      -0.139700
     10 C30          2.8470    -1.5520    -0.2610 c6         1 2FN      -0.060900
     11 C29          3.8200    -1.8260     0.9110 c6         1 2FN       0.161300
     12 N25          3.3890    -2.9870     1.7580 n3         1 2FN      -0.717600
     13 C26          4.3850    -3.3400     2.8240 c3         1 2FN       0.186500
     14 C28          3.9650    -4.5710     3.6710 c3         1 2FN      -0.091100
     15 C27          5.8160    -3.5850     2.2730 c3         1 2FN      -0.091100
     16 C24          2.0020    -2.7620     2.2920 c6         1 2FN       0.161300
     17 C23          0.9590    -2.5000     1.1730 c6         1 2FN      -0.060900
     18 C19          0.0510     2.2780     0.1380 ca         1 2FN      -0.123000
     19 C14          1.0950     3.2120     0.3260 ca         1 2FN       0.182100
     20 O13          2.3920     2.7460     0.3710 os         1 2FN      -0.331100
     21 C11          4.7240     2.6650     0.8740 cd         1 2FN       0.273300
     22 N9           5.4940     2.7150     1.9510 nc         1 2FN      -0.347300
     23 C10          5.1330     1.6730    -0.0380 cd         1 2FN      -0.222000
     24 S3           6.6190    -0.8290    -1.5210 ss         1 2FN       0.281000
     25 Cl1          8.3240    -3.2470    -2.3180 cl         1 2FN      -0.128000
     26 C18         -1.2760     2.7330    -0.0030 ca         1 2FN       0.190100
     27 C17         -1.5600     4.1120     0.0870 ca         1 2FN      -0.233000
     28 C16         -0.5240     5.0340     0.3010 ca         1 2FN      -0.029000
     29 C15          0.8010     4.5880     0.4130 ca         1 2FN      -0.233000
     30 O32         -2.2680     1.7930    -0.2160 os         1 2FN      -0.333100
     31 C33         -3.6510     2.1530    -0.3640 c3         1 2FN       0.164600
     32 C34         -4.4460     0.8550    -0.5840 c3         1 2FN      -0.087400
     33 C35         -5.9530     1.1100    -0.7570 c3         1 2FN       0.166600
     34 O36         -6.5880    -0.1640    -0.9500 os         1 2FN      -0.451000
     35 C37         -8.0100    -0.1370    -1.1560 c6         1 2FN       0.363300
     36 C46         -8.5330    -1.5740    -1.4820 c6         1 2FN       0.115300
     37 O47         -7.8910    -2.1490    -2.6470 oh         1 2FN      -0.724000
     38 C44        -10.0730    -1.5060    -1.6780 c6         1 2FN       0.139300
     39 O45        -10.6000    -2.8170    -1.9490 oh         1 2FN      -0.664000
     40 C42        -10.7480    -0.8880    -0.4150 c6         1 2FN       0.142300
     41 O42        -12.1700    -0.7910    -0.6250 oh         1 2FN      -0.718000
     42 C39        -10.0970     0.4990    -0.1010 c6         1 2FN       0.181300
     43 O38         -8.6570     0.3480     0.0360 os         1 2FN      -0.467000
     44 C40        -10.6560     1.1360     1.2150 c3         1 2FN       0.171600
     45 O41        -10.0380     2.3970     1.5510 oh         1 2FN      -0.714000
     46 H1           9.3960    -2.3010     0.3440 ha         1 2FN       0.152000
     47 H2           8.3810    -0.2670     1.6420 ha         1 2FN       0.153000
     48 H3           0.7700    -1.4060    -0.6480 hc         1 2FN       0.058700
     49 H4           2.8730    -2.4070    -0.9500 hc         1 2FN       0.047700
     50 H5           3.1820    -0.6790    -0.8370 hc         1 2FN       0.047700
     51 H6           4.8030    -2.0140     0.4620 h1         1 2FN       0.039200
     52 H7           3.9180    -0.9190     1.5270 h1         1 2FN       0.039200
     53 H9           4.4620    -2.4940     3.5210 h1         1 2FN       0.023700
     54 H10          3.7370    -5.4280     3.0260 hc         1 2FN       0.036200
     55 H11          4.7670    -4.8650     4.3580 hc         1 2FN       0.036200
     56 H12          3.0880    -4.3530     4.2900 hc         1 2FN       0.036200
     57 H13          6.2680    -2.6580     1.9040 hc         1 2FN       0.036200
     58 H14          6.4800    -3.9630     3.0590 hc         1 2FN       0.036200
     59 H15          5.8000    -4.3180     1.4570 hc         1 2FN       0.036200
     60 H16          1.6480    -3.6390     2.8500 h1         1 2FN       0.039200
     61 H17          2.0010    -1.9170     2.9960 h1         1 2FN       0.039200
     62 H18         -0.0250    -2.2870     1.6130 hc         1 2FN       0.047700
     63 H19          0.8410    -3.4170     0.5780 hc         1 2FN       0.047700
     64 H20         -0.1080     0.4230    -0.7520 hn         1 2FN       0.152000
     65 H21          3.7200     4.3150    -0.0510 h1         1 2FN       0.061200
     66 H22          3.3390     4.0840     1.6760 h1         1 2FN       0.061200
     67 H23          4.6650     1.4220    -0.9810 ha         1 2FN       0.161000
     68 H24         -2.5740     4.4880    -0.0080 ha         1 2FN       0.122000
     69 H25         -0.7470     6.0980     0.3660 ha         1 2FN       0.113000
     70 H26          1.5870     5.3240     0.5530 ha         1 2FN       0.122000
     71 H27         -4.0180     2.6610     0.5380 h1         1 2FN       0.037700
     72 H28         -3.7880     2.8190    -1.2260 h1         1 2FN       0.037700
     73 H29         -4.0620     0.3440    -1.4740 hc         1 2FN       0.069200
     74 H30         -4.2910     0.1880     0.2730 hc         1 2FN       0.069200
     75 H31         -6.3450     1.6120     0.1370 h1         1 2FN       0.037200
     76 H32         -6.1200     1.7630    -1.6250 h1         1 2FN       0.037200
     77 H33         -8.2390     0.5340    -1.9980 h2         1 2FN       0.033700
     78 H34         -8.3270    -2.2010    -0.6000 h1         1 2FN       0.068700
     79 H35         -6.9230    -1.9840    -2.5350 ho         1 2FN       0.524000
     80 H36        -10.2740    -0.8440    -2.5340 h1         1 2FN       0.052700
     81 H37         -9.9200    -3.2440    -2.5230 ho         1 2FN       0.466000
     82 H38        -10.5470    -1.5550     0.4380 h1         1 2FN       0.056700
     83 H39        -12.4150    -1.6270    -1.0930 ho         1 2FN       0.525000
     84 H40        -10.3030     1.1930    -0.9290 h1         1 2FN       0.058700
     85 H41        -11.7400     1.2730     1.0960 h1         1 2FN       0.037700
     86 H42        -10.5090     0.4150     2.0310 h1         1 2FN       0.037700
     87 H43        -10.4100     2.6760     2.4210 ho         1 2FN       0.505000
     88 C12          3.5200     3.5660     0.7250 c3         1 2FN       0.127300
     89 N20          0.3190     0.8810     0.0430 ns         1 2FN      -0.152000
@<TRIPOS>BOND
     1     1     2 2   
     2     1    24 1   
     3     1    25 1   
     4     2     3 1   
     5     2    46 1   
     6     3     4 2   
     7     3    47 1   
     8     4     6 1   
     9     4    24 1   
    10     5     6 1   
    11     5    22 1   
    12     6    23 2   
    13     7     8 2   
    14     8     9 1   
    15     8    89 1   
    16     9    10 1   
    17     9    17 1   
    18     9    48 1   
    19    10    11 1   
    20    10    49 1   
    21    10    50 1   
    22    11    12 1   
    23    11    51 1   
    24    11    52 1   
    25    12    13 1   
    26    12    16 1   
    27    13    14 1   
    28    13    15 1   
    29    13    53 1   
    30    14    54 1   
    31    14    55 1   
    32    14    56 1   
    33    15    57 1   
    34    15    58 1   
    35    15    59 1   
    36    16    17 1   
    37    16    60 1   
    38    16    61 1   
    39    17    62 1   
    40    17    63 1   
    41    18    19 ar  
    42    18    26 ar  
    43    18    89 1   
    44    19    20 1   
    45    19    29 ar  
    46    20    88 1   
    47    21    22 2   
    48    21    23 1   
    49    21    88 1   
    50    23    67 1   
    51    26    27 ar  
    52    26    30 1   
    53    27    28 ar  
    54    27    68 1   
    55    28    29 ar  
    56    28    69 1   
    57    29    70 1   
    58    30    31 1   
    59    31    32 1   
    60    31    71 1   
    61    31    72 1   
    62    32    33 1   
    63    32    73 1   
    64    32    74 1   
    65    33    34 1   
    66    33    75 1   
    67    33    76 1   
    68    34    35 1   
    69    35    36 1   
    70    35    43 1   
    71    35    77 1   
    72    36    37 1   
    73    36    38 1   
    74    36    78 1   
    75    37    79 1   
    76    38    39 1   
    77    38    40 1   
    78    38    80 1   
    79    39    81 1   
    80    40    41 1   
    81    40    42 1   
    82    40    82 1   
    83    41    83 1   
    84    42    43 1   
    85    42    44 1   
    86    42    84 1   
    87    44    45 1   
    88    44    85 1   
    89    44    86 1   
    90    45    87 1   
    91    64    89 1   
    92    65    88 1   
    93    66    88 1   
@<TRIPOS>SUBSTRUCTURE
     1 2FN         1 TEMP              0 ****  ****    0 ROOT
