@<TRIPOS>MOLECULE
2FO
   18    17     1     0     0
SMALL
No Charge or Current Charge


@<TRIPOS>ATOM
      1 O3         -12.2360    26.6080    -6.8430 o          1 2FO      -0.733000
      2 C6         -11.0220    26.4950    -6.9350 c          1 2FO       0.722200
      3 O4         -10.3480    27.3230    -7.5290 o          1 2FO      -0.733000
      4 C2         -10.3540    25.3290    -6.2350 ce         1 2FO      -0.150800
      5 C          -11.2990    24.3070    -5.7450 ce         1 2FO       0.419600
      6 C1         -12.2450    23.5370    -6.7190 c          1 2FO       0.653700
      7 O1         -12.1280    23.7000    -7.9320 o          1 2FO      -0.724500
      8 O          -13.0560    22.7260    -6.2700 o          1 2FO      -0.724500
      9 N          -11.2350    24.0320    -4.4610 n2         1 2FO      -0.799100
     10 C3          -8.9960    25.1570    -6.0270 cf         1 2FO      -0.275000
     11 C4          -7.8730    26.0300    -6.3890 cf         1 2FO      -0.102000
     12 C5          -6.5650    25.7410    -6.1810 c2         1 2FO      -0.189900
     13 O2          -6.1640    24.5860    -5.6120 oh         1 2FO      -0.548100
     14 H5         -10.4950    24.6080    -4.0400 hn         1 2FO       0.302400
     15 H8          -8.7050    24.2390    -5.5140 ha         1 2FO       0.141000
     16 H10         -8.0940    26.9920    -6.8530 ha         1 2FO       0.208000
     17 H12         -5.7770    26.4380    -6.4710 h4         1 2FO       0.122000
     18 H2          -5.1810    24.5840    -5.5600 ho         1 2FO       0.412000
@<TRIPOS>BOND
     1     1     2 1   
     2     2     3 1   
     3     2     4 1   
     4     4     5 1   
     5     4    10 2   
     6     5     6 1   
     7     5     9 2   
     8     6     7 1   
     9     6     8 1   
    10     9    14 1   
    11    10    11 1   
    12    10    15 1   
    13    11    12 2   
    14    11    16 1   
    15    12    13 1   
    16    12    17 1   
    17    13    18 1   
@<TRIPOS>SUBSTRUCTURE
     1 2FO         1 TEMP              0 ****  ****    0 ROOT
