@<TRIPOS>MOLECULE
2FO
   18    17     1     0     0
SMALL
abcg2


@<TRIPOS>ATOM
      1 O3         -12.1350    26.6680    -6.5370 o          1 2FO      -0.733000
      2 C6         -10.9790    26.4350    -6.9500 c          1 2FO       0.722200
      3 O4         -10.3610    27.0650    -7.8300 o          1 2FO      -0.733000
      4 C2         -10.3040    25.2660    -6.2580 ce         1 2FO      -0.150800
      5 C          -11.2460    24.2560    -5.7160 ce         1 2FO       0.419600
      6 C1         -12.2690    23.6920    -6.7130 c          1 2FO       0.653700
      7 O1         -11.8620    23.6510    -7.8910 o          1 2FO      -0.724500
      8 O          -13.3620    23.3020    -6.2700 o          1 2FO      -0.724500
      9 N          -11.2060    23.7730    -4.5380 n2         1 2FO      -0.799100
     10 C3          -8.9830    25.1280    -6.0320 cf         1 2FO      -0.275000
     11 C4          -7.9180    26.0210    -6.4340 cf         1 2FO      -0.102000
     12 C5          -6.6190    25.8050    -6.1820 c2         1 2FO      -0.189900
     13 O2          -6.1620    24.7190    -5.5310 oh         1 2FO      -0.548100
     14 H5         -10.4540    24.2100    -4.0070 hn         1 2FO       0.302400
     15 H8          -8.6710    24.2440    -5.4810 ha         1 2FO       0.141000
     16 H10         -8.1670    26.9210    -6.9730 ha         1 2FO       0.208000
     17 H12         -5.8720    26.5240    -6.5060 h4         1 2FO       0.122000
     18 H2          -5.2030    24.7530    -5.4680 ho         1 2FO       0.412000
@<TRIPOS>BOND
     1     1     2 1   
     2     2     3 1   
     3     2     4 1   
     4     4     5 1   
     5     4    10 2   
     6     5     6 1   
     7     5     9 2   
     8     6     7 1   
     9     6     8 1   
    10     9    14 1   
    11    10    11 1   
    12    10    15 1   
    13    11    12 2   
    14    11    16 1   
    15    12    13 1   
    16    12    17 1   
    17    13    18 1   
@<TRIPOS>SUBSTRUCTURE
     1 2FO         1 TEMP              0 ****  ****    0 ROOT
