@<TRIPOS>MOLECULE
2FQ
   24    25     1     0     0
SMALL
No Charge or Current Charge


@<TRIPOS>ATOM
      1 O            3.0430     1.3280     0.0230 o          1 2FQ      -0.545000
      2 C6           2.0530     0.5990     0.0210 c          1 2FQ       0.559200
      3 C5           2.1570    -0.9210     0.0230 cc         1 2FQ       0.066800
      4 N3           3.4410    -1.4420     0.0260 nv         1 2FQ      -0.930000
      5 C4           1.0370    -1.7150     0.0220 cd         1 2FQ      -0.219200
      6 N1           0.7340     1.1310     0.0180 n          1 2FQ      -0.353300
      7 C8           0.5460     2.6090     0.0160 c3         1 2FQ       0.083300
      8 C7          -0.4310     0.2860     0.0170 ca         1 2FQ       0.232900
      9 C3          -0.2930    -1.1130     0.0190 ca         1 2FQ      -0.172800
     10 C2          -1.4680    -1.8860     0.0190 ca         1 2FQ       0.139900
     11 N           -2.6880    -1.3140     0.0170 nb         1 2FQ      -0.195000
     12 N2          -1.6530     0.8620     0.0150 nb         1 2FQ      -0.225000
     13 C1          -2.7220     0.0360     0.0120 ca         1 2FQ       0.164300
     14 C           -4.0920     0.6890     0.0180 c3         1 2FQ      -0.134400
     15 H1           4.2490    -0.8170     0.0430 hn         1 2FQ       0.472500
     16 H2           3.6120    -2.4470     0.0520 hn         1 2FQ       0.472500
     17 H3           1.1440    -2.7970     0.0230 ha         1 2FQ       0.194000
     18 H4           1.5000     3.1500     0.0120 h1         1 2FQ       0.060367
     19 H5          -0.0200     2.9070    -0.8760 h1         1 2FQ       0.060367
     20 H6          -0.0160     2.9100     0.9100 h1         1 2FQ       0.060367
     21 H7          -1.4360    -2.9750     0.0220 h4         1 2FQ       0.026100
     22 H8          -4.4330     0.8670     1.0450 hc         1 2FQ       0.060700
     23 H9          -4.0780     1.6550    -0.5020 hc         1 2FQ       0.060700
     24 H10         -4.8390     0.0600    -0.4800 hc         1 2FQ       0.060700
@<TRIPOS>BOND
     1     1     2 2   
     2     2     3 1   
     3     2     6 1   
     4     3     4 1   
     5     3     5 2   
     6     4    15 1   
     7     4    16 1   
     8     5     9 1   
     9     5    17 1   
    10     6     7 1   
    11     6     8 1   
    12     7    18 1   
    13     7    19 1   
    14     7    20 1   
    15     8     9 ar  
    16     8    12 ar  
    17     9    10 ar  
    18    10    11 ar  
    19    10    21 1   
    20    11    13 ar  
    21    12    13 ar  
    22    13    14 1   
    23    14    22 1   
    24    14    23 1   
    25    14    24 1   
@<TRIPOS>SUBSTRUCTURE
     1 2FQ         1 TEMP              0 ****  ****    0 ROOT
