@<TRIPOS>MOLECULE
2FQ
   24    25     1     0     0
SMALL
bcc


@<TRIPOS>ATOM
      1 O            2.9590     1.2880     0.0610 o          1 2FQ      -0.620500
      2 C6           1.9790     0.5600     0.0600 c          1 2FQ       0.701700
      3 C5           2.1300    -0.9090     0.0860 cc         1 2FQ       0.066800
      4 N3           3.4170    -1.3470     0.1810 nv         1 2FQ      -0.819600
      5 C4           1.0370    -1.7100     0.0630 cd         1 2FQ      -0.169200
      6 N1           0.6970     1.0650     0.0270 n          1 2FQ      -0.420300
      7 C8           0.5020     2.5100     0.0010 c3         1 2FQ       0.083300
      8 C7          -0.4150     0.2600     0.0250 ca         1 2FQ       0.561200
      9 C3          -0.2630    -1.1320     0.0400 ca         1 2FQ      -0.303400
     10 C2          -1.4580    -1.8460     0.0250 ca         1 2FQ       0.468200
     11 N           -2.6460    -1.2700     0.0010 nb         1 2FQ      -0.721000
     12 N2          -1.6040     0.8440     0.0030 nb         1 2FQ      -0.751000
     13 C1          -2.6740     0.0640    -0.0070 ca         1 2FQ       0.690300
     14 C           -4.0140     0.7270     0.0030 c3         1 2FQ      -0.134400
     15 H1           4.1320    -0.7200    -0.1500 hn         1 2FQ       0.417300
     16 H2           3.5850    -2.3130    -0.0450 hn         1 2FQ       0.417300
     17 H3           1.1380    -2.7890     0.0710 ha         1 2FQ       0.144000
     18 H4           1.4680     2.9980    -0.0340 h1         1 2FQ       0.060367
     19 H5          -0.0740     2.7960    -0.8760 h1         1 2FQ       0.060367
     20 H6          -0.0310     2.8350     0.8920 h1         1 2FQ       0.060367
     21 H7          -1.4340    -2.9320     0.0310 h4         1 2FQ       0.026100
     22 H8          -4.3920     0.7930     1.0260 hc         1 2FQ       0.060700
     23 H9          -3.9540     1.7370    -0.3940 hc         1 2FQ       0.060700
     24 H10         -4.7380     0.1540    -0.5740 hc         1 2FQ       0.060700
@<TRIPOS>BOND
     1     1     2 2   
     2     2     3 1   
     3     2     6 1   
     4     3     4 1   
     5     3     5 2   
     6     4    15 1   
     7     4    16 1   
     8     5     9 1   
     9     5    17 1   
    10     6     7 1   
    11     6     8 1   
    12     7    18 1   
    13     7    19 1   
    14     7    20 1   
    15     8     9 ar  
    16     8    12 ar  
    17     9    10 ar  
    18    10    11 ar  
    19    10    21 1   
    20    11    13 ar  
    21    12    13 ar  
    22    13    14 1   
    23    14    22 1   
    24    14    23 1   
    25    14    24 1   
@<TRIPOS>SUBSTRUCTURE
     1 2FQ         1 TEMP              0 ****  ****    0 ROOT
