@<TRIPOS>MOLECULE
2FR
   55    58     1     0     0
SMALL
abcg2


@<TRIPOS>ATOM
      1 C30          5.1880     2.4720    -0.8570 ca         1 2FR      -0.098000
      2 C28          7.5900     2.3910    -0.9530 ca         1 2FR      -0.103000
      3 C27          7.5730     1.2410    -0.1730 ca         1 2FR      -0.108500
      4 C26          6.3670     0.7150     0.2670 ca         1 2FR      -0.098000
      5 C24          3.7400     0.8330     1.9380 c3         1 2FR      -0.119100
      6 C23          3.8450     0.7600     0.4130 c3         1 2FR       0.285800
      7 N21         -8.5710     0.6780     0.2030 nt         1 2FR      -0.615000
      8 C16         -3.7280     1.3750     0.0430 ca         1 2FR      -0.071300
      9 C17         -3.0400     0.1910    -0.1990 ca         1 2FR      -0.103000
     10 C20         -7.5450     1.1790    -0.5050 c          1 2FR       0.603100
     11 C15         -3.1870     2.2980     0.9350 ca         1 2FR      -0.115000
     12 C12         -1.8380    -0.0730     0.4480 ca         1 2FR       0.038800
     13 C13         -1.3120     0.8450     1.3520 ca         1 2FR      -0.132000
     14 C14         -1.9880     2.0330     1.5800 ca         1 2FR      -0.097000
     15 C10         -1.0270    -3.3790    -0.2450 cc         1 2FR       0.401900
     16 C4           0.1710    -1.4980     0.0580 ca         1 2FR       0.054800
     17 C5           0.3050    -2.8670    -0.2200 ca         1 2FR      -0.347900
     18 C6           1.5890    -3.3680    -0.4110 ca         1 2FR       0.466900
     19 C3           1.2820    -0.6620     0.1170 ca         1 2FR      -0.277000
     20 C2           2.5170    -1.2790    -0.0940 ca         1 2FR       0.641900
     21 O22         -7.6990     1.7810    -1.5570 o          1 2FR      -0.605100
     22 C19         -6.1800     0.9280     0.1050 c3         1 2FR      -0.161400
     23 C18         -5.0470     1.6350    -0.6300 c3         1 2FR      -0.018100
     24 N8          -1.1630    -1.2780     0.1890 na         1 2FR       0.154800
     25 N9          -1.8760    -2.4210    -0.0060 nd         1 2FR      -0.525100
     26 N1           2.6550    -2.6040    -0.3440 nb         1 2FR      -0.769000
     27 N7           3.6870    -0.5890    -0.0980 nu         1 2FR      -0.922100
     28 C25          5.1600     1.3230    -0.0730 ca         1 2FR      -0.095300
     29 C29          6.3940     3.0070    -1.2920 ca         1 2FR      -0.108500
     30 H30          4.2570     2.9560    -1.1270 ha         1 2FR       0.112500
     31 H28          8.5320     2.8050    -1.2900 ha         1 2FR       0.115000
     32 H27          8.5020     0.7540     0.0950 ha         1 2FR       0.115000
     33 H26          6.3760    -0.1770     0.8850 ha         1 2FR       0.112500
     34 H24          3.8440     1.8640     2.2770 hc         1 2FR       0.045367
     35 H24A         2.7760     0.4620     2.2880 hc         1 2FR       0.045367
     36 H24B         4.5220     0.2390     2.4100 hc         1 2FR       0.045367
     37 H23          3.0520     1.3760    -0.0190 h1         1 2FR       0.063700
     38 HN21        -9.5150     0.7650    -0.1330 hn         1 2FR       0.312500
     39 HN2A        -8.4280     0.1780     1.0630 hn         1 2FR       0.312500
     40 H17         -3.4420    -0.5320    -0.8990 ha         1 2FR       0.136000
     41 H15         -3.7070     3.2290     1.1260 ha         1 2FR       0.116000
     42 H13         -0.3980     0.6310     1.8900 ha         1 2FR       0.125000
     43 H14         -1.5790     2.7500     2.2790 ha         1 2FR       0.116000
     44 H11         -0.9990    -5.4610     0.2240 hc         1 2FR       0.052367
     45 H11A        -2.5390    -4.8720    -0.4110 hc         1 2FR       0.052367
     46 H11B        -1.1600    -5.1090    -1.4890 hc         1 2FR       0.052367
     47 H6           1.7550    -4.4190    -0.6250 h4         1 2FR       0.021100
     48 H3           1.1970     0.3990     0.2960 ha         1 2FR       0.133000
     49 H19         -6.1970     1.2340     1.1550 hc         1 2FR       0.061200
     50 H19A        -6.0080    -0.1520     0.1160 hc         1 2FR       0.061200
     51 H18         -5.2370     2.7090    -0.6560 hc         1 2FR       0.065200
     52 H18A        -5.0080     1.2960    -1.6670 hc         1 2FR       0.065200
     53 HN7          4.5100    -1.1700    -0.1270 hn         1 2FR       0.496000
     54 H29          6.3970     3.9030    -1.9000 ha         1 2FR       0.115000
     55 C11         -1.4580    -4.7790    -0.4930 c3         1 2FR      -0.106400
@<TRIPOS>BOND
     1     1    28 ar  
     2     1    29 ar  
     3     1    30 1   
     4     2     3 ar  
     5     2    29 ar  
     6     2    31 1   
     7     3     4 ar  
     8     3    32 1   
     9     4    28 ar  
    10     4    33 1   
    11     5     6 1   
    12     5    34 1   
    13     5    35 1   
    14     5    36 1   
    15     6    27 1   
    16     6    28 1   
    17     6    37 1   
    18     7    10 1   
    19     7    38 1   
    20     7    39 1   
    21     8     9 ar  
    22     8    11 ar  
    23     8    23 1   
    24     9    12 ar  
    25     9    40 1   
    26    10    21 2   
    27    10    22 1   
    28    11    14 ar  
    29    11    41 1   
    30    12    13 ar  
    31    12    24 1   
    32    13    14 ar  
    33    13    42 1   
    34    14    43 1   
    35    15    17 1   
    36    15    25 2   
    37    15    55 1   
    38    16    17 ar  
    39    16    19 ar  
    40    16    24 1   
    41    17    18 ar  
    42    18    26 ar  
    43    18    47 1   
    44    19    20 ar  
    45    19    48 1   
    46    20    26 ar  
    47    20    27 1   
    48    22    23 1   
    49    22    49 1   
    50    22    50 1   
    51    23    51 1   
    52    23    52 1   
    53    24    25 1   
    54    27    53 1   
    55    29    54 1   
    56    44    55 1   
    57    45    55 1   
    58    46    55 1   
@<TRIPOS>SUBSTRUCTURE
     1 2FR         1 TEMP              0 ****  ****    0 ROOT
