@<TRIPOS>MOLECULE
2FR
   55    58     1     0     0
SMALL
No Charge or Current Charge


@<TRIPOS>ATOM
      1 C30          5.0280     2.5180    -1.1430 ca         1 2FR      -0.098000
      2 C28          7.4580     2.4790    -1.2880 ca         1 2FR      -0.103000
      3 C27          7.4930     1.4020    -0.3880 ca         1 2FR      -0.108500
      4 C26          6.2960     0.8830     0.1360 ca         1 2FR      -0.098000
      5 C24          3.7180     0.8590     1.8680 c3         1 2FR      -0.119100
      6 C23          3.7390     0.8870     0.3250 c3         1 2FR       0.285800
      7 N21         -8.4880     1.0860    -0.6500 nt         1 2FR      -0.615000
      8 C16         -3.6200     1.3200     0.3850 ca         1 2FR      -0.071300
      9 C17         -2.9610     0.1260     0.0330 ca         1 2FR      -0.103000
     10 C20         -7.3080     1.6640    -0.9540 c          1 2FR       0.603100
     11 C15         -3.2290     2.0100     1.5480 ca         1 2FR      -0.115000
     12 C12         -1.9140    -0.3760     0.8310 ca         1 2FR       0.038800
     13 C13         -1.5320     0.3230     1.9930 ca         1 2FR      -0.132000
     14 C14         -2.1870     1.5130     2.3500 ca         1 2FR      -0.097000
     15 C10         -0.9280    -3.6150     0.0020 cc         1 2FR       0.401900
     16 C4           0.0870    -1.6430     0.2100 ca         1 2FR       0.054800
     17 C5           0.3350    -2.9350    -0.0900 ca         1 2FR      -0.347900
     18 C6           1.6190    -3.3700    -0.4190 ca         1 2FR       0.466900
     19 C3           1.1210    -0.7090     0.1910 ca         1 2FR      -0.277000
     20 C2           2.3900    -1.2150    -0.1360 ca         1 2FR       0.641900
     21 O22         -7.2460     2.5070    -1.8330 o          1 2FR      -0.605100
     22 C19         -6.1060     1.1890    -0.1320 c3         1 2FR      -0.161400
     23 C18         -4.7540     1.8520    -0.4810 c3         1 2FR      -0.018100
     24 N8          -1.2630    -1.5560     0.4720 na         1 2FR       0.154800
     25 N9          -1.9220    -2.7790     0.3440 nd         1 2FR      -0.525100
     26 N1           2.6540    -2.4930    -0.4400 nb         1 2FR      -0.769000
     27 N7           3.5160    -0.4550    -0.2110 nu         1 2FR      -0.922100
     28 C25          5.0510     1.4390    -0.2340 ca         1 2FR      -0.095300
     29 C29          6.2260     3.0360    -1.6660 ca         1 2FR      -0.108500
     30 H30          4.0800     2.9580    -1.4450 ha         1 2FR       0.112500
     31 H28          8.3850     2.8810    -1.6940 ha         1 2FR       0.115000
     32 H27          8.4470     0.9670    -0.0970 ha         1 2FR       0.115000
     33 H26          6.3400     0.0450     0.8280 ha         1 2FR       0.112500
     34 H24          3.9340     1.8570     2.2660 hc         1 2FR       0.045367
     35 H24A         2.7330     0.5550     2.2410 hc         1 2FR       0.045367
     36 H24B         4.4630     0.1610     2.2670 hc         1 2FR       0.045367
     37 H23          2.9260     1.5480    -0.0090 h1         1 2FR       0.063700
     38 HN21        -9.3170     1.3580    -1.1570 hn         1 2FR       0.312500
     39 HN2A        -8.5370     0.3890     0.0790 hn         1 2FR       0.312500
     40 H17         -3.2600    -0.4150    -0.8620 ha         1 2FR       0.136000
     41 H15         -3.7330     2.9310     1.8340 ha         1 2FR       0.116000
     42 H13         -0.7280    -0.0580     2.6190 ha         1 2FR       0.125000
     43 H14         -1.8900     2.0500     3.2480 ha         1 2FR       0.116000
     44 H11         -0.5350    -5.6810     0.4300 hc         1 2FR       0.052367
     45 H11A        -2.1940    -5.3560    -0.1070 hc         1 2FR       0.052367
     46 H11B        -0.8630    -5.3350    -1.2800 hc         1 2FR       0.052367
     47 H6           1.8310    -4.4100    -0.6680 h4         1 2FR       0.021100
     48 H3           0.9540     0.3390     0.4120 ha         1 2FR       0.133000
     49 H19         -6.3560     1.3090     0.9290 hc         1 2FR       0.061200
     50 H19A        -6.0570     0.0960    -0.2100 hc         1 2FR       0.061200
     51 H18         -4.8430     2.9400    -0.3630 hc         1 2FR       0.065200
     52 H18A        -4.5290     1.6780    -1.5410 hc         1 2FR       0.065200
     53 HN7          4.3310    -1.0020    -0.4660 hn         1 2FR       0.496000
     54 H29          6.1970     3.8690    -2.3650 ha         1 2FR       0.115000
     55 C11         -1.1440    -5.0780    -0.2520 c3         1 2FR      -0.106400
@<TRIPOS>BOND
     1     1    28 ar  
     2     1    29 ar  
     3     1    30 1   
     4     2     3 ar  
     5     2    29 ar  
     6     2    31 1   
     7     3     4 ar  
     8     3    32 1   
     9     4    28 ar  
    10     4    33 1   
    11     5     6 1   
    12     5    34 1   
    13     5    35 1   
    14     5    36 1   
    15     6    27 1   
    16     6    28 1   
    17     6    37 1   
    18     7    10 1   
    19     7    38 1   
    20     7    39 1   
    21     8     9 ar  
    22     8    11 ar  
    23     8    23 1   
    24     9    12 ar  
    25     9    40 1   
    26    10    21 2   
    27    10    22 1   
    28    11    14 ar  
    29    11    41 1   
    30    12    13 ar  
    31    12    24 1   
    32    13    14 ar  
    33    13    42 1   
    34    14    43 1   
    35    15    17 1   
    36    15    25 2   
    37    15    55 1   
    38    16    17 ar  
    39    16    19 ar  
    40    16    24 1   
    41    17    18 ar  
    42    18    26 ar  
    43    18    47 1   
    44    19    20 ar  
    45    19    48 1   
    46    20    26 ar  
    47    20    27 1   
    48    22    23 1   
    49    22    49 1   
    50    22    50 1   
    51    23    51 1   
    52    23    52 1   
    53    24    25 1   
    54    27    53 1   
    55    29    54 1   
    56    44    55 1   
    57    45    55 1   
    58    46    55 1   
@<TRIPOS>SUBSTRUCTURE
     1 2FR         1 TEMP              0 ****  ****    0 ROOT
