@<TRIPOS>MOLECULE
2FS
   59    63     1     0     0
SMALL
No Charge or Current Charge


@<TRIPOS>ATOM
      1 C2           3.7010    -3.1220     1.0200 c          1 2FS       0.726000
      2 C4           3.9890    -1.6050     1.1830 c6         1 2FS      -0.172700
      3 C6           5.0690    -1.0570     0.2060 c6         1 2FS      -0.053400
      4 C7           5.3860     0.4340     0.5050 c6         1 2FS      -0.074400
      5 C8           4.1090     1.3180     0.4970 c6         1 2FS      -0.069400
      6 C9           3.0340     0.7770     1.4750 c6         1 2FS      -0.071400
      7 C16         -1.8310    -0.8740     1.5470 c6         1 2FS      -0.047100
      8 C18         -1.8720    -1.8240    -0.7760 ca         1 2FS      -0.066300
      9 C19         -2.4690    -2.6100    -1.7830 ca         1 2FS      -0.087000
     10 C20         -3.6740    -3.2870    -1.5310 ca         1 2FS      -0.110000
     11 C21         -4.2930    -3.1790    -0.2750 ca         1 2FS      -0.112000
     12 C22         -3.7030    -2.3950     0.7310 ca         1 2FS      -0.109000
     13 C27         -0.7720     2.3080    -0.1230 c5         1 2FS       0.140300
     14 C28         -1.9470     3.1160     0.4100 ca         1 2FS      -0.080300
     15 C29         -1.9150     4.1790     1.3250 ca         1 2FS      -0.104000
     16 C30         -3.1290     4.7970     1.6910 ca         1 2FS      -0.098000
     17 C31         -4.3540     4.3510     1.1440 ca         1 2FS      -0.132000
     18 C32         -4.3750     3.2810     0.2260 ca         1 2FS      -0.045000
     19 O1           3.9530    -3.8540     1.9660 o          1 2FS      -0.734500
     20 O3           3.2490    -3.5280    -0.0380 o          1 2FS      -0.734500
     21 C10          2.7040    -0.7100     1.1710 c6         1 2FS      -0.101700
     22 N14          0.3330    -0.8810     0.1300 n          1 2FS      -0.419800
     23 C15         -0.2910    -0.9850     1.4880 c6         1 2FS       0.114000
     24 C17         -2.4920    -1.7230     0.4800 ca         1 2FS      -0.063300
     25 C23         -0.5680    -1.0620    -1.0610 c6         1 2FS       0.142000
     26 C25         -0.8670     0.2780    -1.8030 c3         1 2FS       0.101000
     27 N26         -1.5050     1.3410    -0.9990 n          1 2FS      -0.403800
     28 C33         -3.1520     2.6860    -0.1180 ca         1 2FS      -0.158600
     29 C34         -2.8900     1.5630    -1.0360 c          1 2FS       0.574600
     30 O35         -3.7140     0.9520    -1.7030 o          1 2FS      -0.547000
     31 H1           4.4150    -1.4980     2.1920 hc         1 2FS       0.021700
     32 H2           5.9890    -1.6510     0.3020 hc         1 2FS       0.054700
     33 H3           4.7430    -1.1700    -0.8360 hc         1 2FS       0.054700
     34 H4           5.8790     0.5150     1.4830 hc         1 2FS       0.016700
     35 H5           6.1030     0.8150    -0.2340 hc         1 2FS       0.016700
     36 H6           4.3730     2.3480     0.7740 hc         1 2FS       0.023700
     37 H7           3.7000     1.3700    -0.5200 hc         1 2FS       0.023700
     38 H8           3.4030     0.8690     2.5050 hc         1 2FS       0.020700
     39 H9           2.1240     1.3900     1.4150 hc         1 2FS       0.020700
     40 H12         -2.0010    -2.6930    -2.7610 ha         1 2FS       0.112000
     41 H13         -4.1310    -3.8910    -2.3120 ha         1 2FS       0.103000
     42 H14         -5.2270    -3.7000    -0.0810 ha         1 2FS       0.099000
     43 H15         -4.1850    -2.3130     1.7020 ha         1 2FS       0.100000
     44 H16         -0.0750     2.9340    -0.6970 h1         1 2FS       0.071700
     45 H17         -0.2260     1.8060     0.6850 h1         1 2FS       0.071700
     46 H18         -0.9710     4.5210     1.7450 ha         1 2FS       0.119000
     47 H19         -3.1230     5.6230     2.3990 ha         1 2FS       0.106000
     48 H20         -5.2850     4.8340     1.4330 ha         1 2FS       0.108000
     49 H21         -5.3110     2.9270    -0.2010 ha         1 2FS       0.130000
     50 H23          2.1390    -1.0350     2.0490 hc         1 2FS       0.065700
     51 H24          0.1230    -0.2030     2.1400 h1         1 2FS       0.049200
     52 H25         -0.0040    -1.9550     1.9170 h1         1 2FS       0.049200
     53 H26         -0.0260    -1.6860    -1.7870 h1         1 2FS       0.092700
     54 H27          0.0850     0.6700    -2.1840 h1         1 2FS       0.068200
     55 H28         -1.4910     0.0590    -2.6790 h1         1 2FS       0.068200
     56 C12          1.7430    -0.8560    -0.0590 c          1 2FS       0.636100
     57 H10         -2.1760    -1.1720     2.5460 hc         1 2FS       0.047200
     58 O13          2.1910    -0.8330    -1.2000 o          1 2FS      -0.604100
     59 H11         -2.1350     0.1730     1.4220 hc         1 2FS       0.047200
@<TRIPOS>BOND
     1     1     2 1   
     2     1    19 1   
     3     1    20 1   
     4     2     3 1   
     5     2    21 1   
     6     2    31 1   
     7     3     4 1   
     8     3    32 1   
     9     3    33 1   
    10     4     5 1   
    11     4    34 1   
    12     4    35 1   
    13     5     6 1   
    14     5    36 1   
    15     5    37 1   
    16     6    21 1   
    17     6    38 1   
    18     6    39 1   
    19     7    23 1   
    20     7    24 1   
    21     7    57 1   
    22     7    59 1   
    23     8     9 ar  
    24     8    24 ar  
    25     8    25 1   
    26     9    10 ar  
    27     9    40 1   
    28    10    11 ar  
    29    10    41 1   
    30    11    12 ar  
    31    11    42 1   
    32    12    24 ar  
    33    12    43 1   
    34    13    14 1   
    35    13    27 1   
    36    13    44 1   
    37    13    45 1   
    38    14    15 ar  
    39    14    28 ar  
    40    15    16 ar  
    41    15    46 1   
    42    16    17 ar  
    43    16    47 1   
    44    17    18 ar  
    45    17    48 1   
    46    18    28 ar  
    47    18    49 1   
    48    21    50 1   
    49    21    56 1   
    50    22    23 1   
    51    22    25 1   
    52    22    56 1   
    53    23    51 1   
    54    23    52 1   
    55    25    26 1   
    56    25    53 1   
    57    26    27 1   
    58    26    54 1   
    59    26    55 1   
    60    27    29 1   
    61    28    29 1   
    62    29    30 2   
    63    56    58 2   
@<TRIPOS>SUBSTRUCTURE
     1 2FS         1 TEMP              0 ****  ****    0 ROOT
