@<TRIPOS>MOLECULE
2FS
   59    63     1     0     0
SMALL
abcg2


@<TRIPOS>ATOM
      1 C2           3.9060    -2.9620     0.5170 c          1 2FS       0.726000
      2 C4           3.9730    -1.5120     1.0370 c6         1 2FS      -0.172700
      3 C6           4.8860    -0.6100     0.2060 c6         1 2FS      -0.053400
      4 C7           4.8980     0.8290     0.7120 c6         1 2FS      -0.074400
      5 C8           3.4910     1.3970     0.8450 c6         1 2FS      -0.069400
      6 C9           2.6480     0.5230     1.7620 c6         1 2FS      -0.071400
      7 C16         -1.7200    -0.8670     1.6150 c6         1 2FS      -0.047100
      8 C18         -1.8510    -1.8160    -0.6630 ca         1 2FS      -0.066300
      9 C19         -2.5120    -2.5250    -1.6600 ca         1 2FS      -0.087000
     10 C20         -3.8010    -2.9910    -1.4610 ca         1 2FS      -0.110000
     11 C21         -4.4400    -2.7550    -0.2490 ca         1 2FS      -0.112000
     12 C22         -3.7790    -2.0630     0.7530 ca         1 2FS      -0.109000
     13 C27         -0.5970     2.0740    -0.1830 c5         1 2FS       0.140300
     14 C28         -1.6930     2.9730     0.2910 ca         1 2FS      -0.080300
     15 C29         -1.6560     4.0520     1.1580 ca         1 2FS      -0.104000
     16 C30         -2.8470     4.7190     1.4190 ca         1 2FS      -0.098000
     17 C31         -4.0450     4.3190     0.8270 ca         1 2FS      -0.132000
     18 C32         -4.0760     3.2370    -0.0410 ca         1 2FS      -0.045000
     19 O1           4.9390    -3.4270    -0.0060 o          1 2FS      -0.734500
     20 O3           2.8340    -3.5790     0.6950 o          1 2FS      -0.734500
     21 C10          2.5750    -0.9390     1.2890 c6         1 2FS      -0.101700
     22 N14          0.3340    -1.0830     0.2520 n          1 2FS      -0.419800
     23 C15         -0.2580    -1.2750     1.5730 c6         1 2FS       0.114000
     24 C17         -2.4870    -1.5880     0.5520 ca         1 2FS      -0.063300
     25 C23         -0.4880    -1.2420    -0.9490 c6         1 2FS       0.142000
     26 C25         -0.6230     0.0790    -1.7340 c3         1 2FS       0.101000
     27 N26         -1.3030     1.1280    -1.0240 n          1 2FS      -0.403800
     28 C33         -2.8840     2.5770    -0.2920 ca         1 2FS      -0.158600
     29 C34         -2.6250     1.4100    -1.1640 c          1 2FS       0.574600
     30 O35         -3.4210     0.8270    -1.8780 o          1 2FS      -0.547000
     31 H1           4.4320    -1.5770     2.0370 hc         1 2FS       0.021700
     32 H2           5.9000    -1.0140     0.2320 hc         1 2FS       0.054700
     33 H3           4.5750    -0.6230    -0.8380 hc         1 2FS       0.054700
     34 H4           5.3890     0.8690     1.6910 hc         1 2FS       0.016700
     35 H5           5.4980     1.4540     0.0440 hc         1 2FS       0.016700
     36 H6           3.5300     2.4140     1.2430 hc         1 2FS       0.023700
     37 H7           3.0220     1.4710    -0.1420 hc         1 2FS       0.023700
     38 H8           3.0890     0.5290     2.7640 hc         1 2FS       0.020700
     39 H9           1.6450     0.9470     1.8770 hc         1 2FS       0.020700
     40 H12         -2.0140    -2.7130    -2.6050 ha         1 2FS       0.112000
     41 H13         -4.3030    -3.5450    -2.2440 ha         1 2FS       0.103000
     42 H14         -5.4440    -3.1210    -0.0820 ha         1 2FS       0.099000
     43 H15         -4.2660    -1.8920     1.7060 ha         1 2FS       0.100000
     44 H16          0.1600     2.6180    -0.7560 h1         1 2FS       0.071700
     45 H17         -0.0840     1.5810     0.6460 h1         1 2FS       0.071700
     46 H18         -0.7320     4.3720     1.6230 ha         1 2FS       0.119000
     47 H19         -2.8460     5.5660     2.0940 ha         1 2FS       0.106000
     48 H20         -4.9560     4.8600     1.0490 ha         1 2FS       0.108000
     49 H21         -5.0010     2.9190    -0.5050 ha         1 2FS       0.130000
     50 H23          2.1390    -1.5310     2.0940 hc         1 2FS       0.065700
     51 H24          0.2810    -0.6790     2.3050 h1         1 2FS       0.049200
     52 H25         -0.1720    -2.3230     1.8780 h1         1 2FS       0.049200
     53 H26          0.0270    -1.9290    -1.6250 h1         1 2FS       0.092700
     54 H27          0.3690     0.4330    -2.0140 h1         1 2FS       0.068200
     55 H28         -1.1630    -0.1300    -2.6590 h1         1 2FS       0.068200
     56 C12          1.6850    -1.0510     0.0640 c          1 2FS       0.636100
     57 H10         -2.1110    -1.1060     2.6050 hc         1 2FS       0.047200
     58 O13          2.1490    -1.0420    -1.0700 o          1 2FS      -0.604100
     59 H11         -1.8170     0.2160     1.5000 hc         1 2FS       0.047200
@<TRIPOS>BOND
     1     1     2 1   
     2     1    19 1   
     3     1    20 1   
     4     2     3 1   
     5     2    21 1   
     6     2    31 1   
     7     3     4 1   
     8     3    32 1   
     9     3    33 1   
    10     4     5 1   
    11     4    34 1   
    12     4    35 1   
    13     5     6 1   
    14     5    36 1   
    15     5    37 1   
    16     6    21 1   
    17     6    38 1   
    18     6    39 1   
    19     7    23 1   
    20     7    24 1   
    21     7    57 1   
    22     7    59 1   
    23     8     9 ar  
    24     8    24 ar  
    25     8    25 1   
    26     9    10 ar  
    27     9    40 1   
    28    10    11 ar  
    29    10    41 1   
    30    11    12 ar  
    31    11    42 1   
    32    12    24 ar  
    33    12    43 1   
    34    13    14 1   
    35    13    27 1   
    36    13    44 1   
    37    13    45 1   
    38    14    15 ar  
    39    14    28 ar  
    40    15    16 ar  
    41    15    46 1   
    42    16    17 ar  
    43    16    47 1   
    44    17    18 ar  
    45    17    48 1   
    46    18    28 ar  
    47    18    49 1   
    48    21    50 1   
    49    21    56 1   
    50    22    23 1   
    51    22    25 1   
    52    22    56 1   
    53    23    51 1   
    54    23    52 1   
    55    25    26 1   
    56    25    53 1   
    57    26    27 1   
    58    26    54 1   
    59    26    55 1   
    60    27    29 1   
    61    28    29 1   
    62    29    30 2   
    63    56    58 2   
@<TRIPOS>SUBSTRUCTURE
     1 2FS         1 TEMP              0 ****  ****    0 ROOT
