@<TRIPOS>MOLECULE
2FT
   15    14     1     0     0
SMALL
No Charge or Current Charge


@<TRIPOS>ATOM
      1 O01          3.3630     0.3180    -1.0930 o          1 2FT      -0.763500
      2 C02          2.8650     0.1940     0.0160 c          1 2FT       0.715000
      3 O03          3.3200     0.7210     1.0200 o          1 2FT      -0.763500
      4 C04          1.5620    -0.6180     0.1440 c3         1 2FT      -0.199400
      5 C05          0.3260     0.3070    -0.0580 c3         1 2FT      -0.093400
      6 C06         -1.0620    -0.4000     0.0480 c3         1 2FT       0.008000
      7 F07         -1.1050    -1.4030    -0.8680 f          1 2FT      -0.162000
      8 F08         -1.1490    -0.9950     1.2660 f          1 2FT      -0.162000
      9 C09         -2.2810     0.5790    -0.1640 c          1 2FT       0.707000
     10 O10         -2.0710     1.7660    -0.3860 o          1 2FT      -0.720500
     11 O11         -3.4150     0.1170    -0.0990 o          1 2FT      -0.720500
     12 H04          1.5100    -1.3760    -0.6480 hc         1 2FT       0.018700
     13 H04A         1.4730    -1.0320     1.1560 hc         1 2FT       0.018700
     14 H05          0.3690     1.1140     0.6840 hc         1 2FT       0.058200
     15 H05A         0.4040     0.7850    -1.0430 hc         1 2FT       0.058200
@<TRIPOS>BOND
     1     1     2 1   
     2     2     3 1   
     3     2     4 1   
     4     4     5 1   
     5     4    12 1   
     6     4    13 1   
     7     5     6 1   
     8     5    14 1   
     9     5    15 1   
    10     6     7 1   
    11     6     8 1   
    12     6     9 1   
    13     9    10 1   
    14     9    11 1   
@<TRIPOS>SUBSTRUCTURE
     1 2FT         1 TEMP              0 ****  ****    0 ROOT
