@<TRIPOS>MOLECULE
2FT
   15    14     1     0     0
SMALL
bcc


@<TRIPOS>ATOM
      1 O01          3.8810    -0.4880    -0.0900 o          1 2FT      -0.868800
      2 C02          2.8560     0.1990     0.1020 c          1 2FT       0.925600
      3 O03          2.8230     1.4030     0.4220 o          1 2FT      -0.868800
      4 C04          1.5150    -0.5410    -0.0700 c3         1 2FT      -0.199400
      5 C05          0.2830     0.3420     0.0570 c3         1 2FT      -0.093400
      6 C06         -1.0350    -0.3790    -0.0920 c3         1 2FT       0.250600
      7 F07         -1.0890    -1.0090    -1.3170 f          1 2FT      -0.283300
      8 F08         -1.1170    -1.3960     0.8240 f          1 2FT      -0.283300
      9 C09         -2.2620     0.5580     0.0320 c          1 2FT       0.917600
     10 O10         -2.4040     1.3370    -0.9250 o          1 2FT      -0.825800
     11 O11         -2.9410     0.4590     1.0630 o          1 2FT      -0.825800
     12 H04          1.5280    -1.0440    -1.0420 hc         1 2FT       0.018700
     13 H04A         1.4850    -1.3460     0.6720 hc         1 2FT       0.018700
     14 H05          0.2780     0.8430     1.0280 hc         1 2FT       0.058200
     15 H05A         0.3100     1.1390    -0.6880 hc         1 2FT       0.058200
@<TRIPOS>BOND
     1     1     2 1   
     2     2     3 1   
     3     2     4 1   
     4     4     5 1   
     5     4    12 1   
     6     4    13 1   
     7     5     6 1   
     8     5    14 1   
     9     5    15 1   
    10     6     7 1   
    11     6     8 1   
    12     6     9 1   
    13     9    10 1   
    14     9    11 1   
@<TRIPOS>SUBSTRUCTURE
     1 2FT         1 TEMP              0 ****  ****    0 ROOT
