@<TRIPOS>MOLECULE
2FU
   10     9     1     0     0
SMALL
abcg2


@<TRIPOS>ATOM
      1 C1           0.3200     0.0350    -0.5950 ce         1 2FU      -0.261200
      2 O3           0.1660     0.0580    -2.9510 o          1 2FU      -0.495100
      3 C2          -0.3930     0.0390    -1.8810 c          1 2FU       0.560100
      4 C7           0.3520     0.0110     1.8400 c          1 2FU       0.560100
      5 C5          -0.3610     0.0150     0.5540 cf         1 2FU      -0.261200
      6 O8          -0.2070    -0.0110     2.9100 o          1 2FU      -0.495100
      7 H1           1.4050     0.0490    -0.6120 ha         1 2FU       0.200000
      8 H2          -1.4930     0.0220    -1.8030 h4         1 2FU      -0.004800
      9 H7           1.4520     0.0280     1.7620 h4         1 2FU      -0.004800
     10 H5          -1.4460     0.0010     0.5710 ha         1 2FU       0.200000
@<TRIPOS>BOND
     1     1     3 1   
     2     1     5 2   
     3     1     7 1   
     4     2     3 2   
     5     3     8 1   
     6     4     5 1   
     7     4     6 2   
     8     4     9 1   
     9     5    10 1   
@<TRIPOS>SUBSTRUCTURE
     1 2FU         1 TEMP              0 ****  ****    0 ROOT
