@<TRIPOS>MOLECULE
2FU
   10     9     1     0     0
SMALL
No Charge or Current Charge


@<TRIPOS>ATOM
      1 C1           0.2890     0.0350    -0.6260 ce         1 2FU      -0.261200
      2 O3           0.1930     0.0590    -3.0130 o          1 2FU      -0.495100
      3 C2          -0.4060     0.0390    -1.9440 c          1 2FU       0.560100
      4 C7           0.3690     0.0100     1.9000 c          1 2FU       0.560100
      5 C5          -0.3400     0.0140     0.5920 cf         1 2FU      -0.261200
      6 O8          -0.2210    -0.0090     2.9730 o          1 2FU      -0.495100
      7 H1           1.3780     0.0510    -0.6790 ha         1 2FU       0.200000
      8 H2          -1.5180     0.0240    -1.9090 h4         1 2FU      -0.004800
      9 H7           1.4810     0.0260     1.8540 h4         1 2FU      -0.004800
     10 H5          -1.4300    -0.0010     0.6460 ha         1 2FU       0.200000
@<TRIPOS>BOND
     1     1     3 1   
     2     1     5 2   
     3     1     7 1   
     4     2     3 2   
     5     3     8 1   
     6     4     5 1   
     7     4     6 2   
     8     4     9 1   
     9     5    10 1   
@<TRIPOS>SUBSTRUCTURE
     1 2FU         1 TEMP              0 ****  ****    0 ROOT
