@<TRIPOS>MOLECULE
2FX
   20    21     1     0     0
SMALL
No Charge or Current Charge


@<TRIPOS>ATOM
      1 O1          -3.5330    -0.9420     0.8760 o          1 2FX      -0.719500
      2 C2          -3.2360     0.0760     0.2670 c          1 2FX       0.723000
      3 O3          -3.5090     1.2010     0.6580 o          1 2FX      -0.719500
      4 C4          -0.8840    -0.0550    -0.6140 cc         1 2FX       0.042400
      5 C5           0.0210    -1.0900    -0.7510 cd         1 2FX      -0.264200
      6 C6           1.3650    -0.7860    -0.3300 ca         1 2FX      -0.051800
      7 C7           2.4800    -1.6360    -0.3520 ca         1 2FX      -0.092000
      8 C8           3.7150    -1.1370     0.1090 ca         1 2FX      -0.133000
      9 C9           3.8110     0.1910     0.5790 ca         1 2FX      -0.140000
     10 C10          2.6760     1.0270     0.5910 ca         1 2FX      -0.074000
     11 C11          1.4550     0.5110     0.1280 ca         1 2FX      -0.225000
     12 S12         -0.0950     1.4040     0.0600 ss         1 2FX       0.173400
     13 C13         -2.3470    -0.0610    -0.9750 c3         1 2FX      -0.176200
     14 H5          -0.2660    -2.0590    -1.1480 ha         1 2FX       0.187000
     15 H7           2.3940    -2.6570    -0.7160 ha         1 2FX       0.099000
     16 H8           4.5940    -1.7760     0.1020 ha         1 2FX       0.090000
     17 H9           4.7660     0.5720     0.9330 ha         1 2FX       0.091000
     18 H10          2.7460     2.0510     0.9520 ha         1 2FX       0.106000
     19 H13         -2.5430    -1.0230    -1.4630 hc         1 2FX       0.042200
     20 H13A        -2.5000     0.7980    -1.6380 hc         1 2FX       0.042200
@<TRIPOS>BOND
     1     1     2 1   
     2     2     3 1   
     3     2    13 1   
     4     4     5 2   
     5     4    12 1   
     6     4    13 1   
     7     5     6 1   
     8     5    14 1   
     9     6     7 ar  
    10     6    11 ar  
    11     7     8 ar  
    12     7    15 1   
    13     8     9 ar  
    14     8    16 1   
    15     9    10 ar  
    16     9    17 1   
    17    10    11 ar  
    18    10    18 1   
    19    11    12 1   
    20    13    19 1   
    21    13    20 1   
@<TRIPOS>SUBSTRUCTURE
     1 2FX         1 TEMP              0 ****  ****    0 ROOT
