@<TRIPOS>MOLECULE
2FX
   20    21     1     0     0
SMALL
abcg2


@<TRIPOS>ATOM
      1 O1          -4.3600    -0.2210     0.3920 o          1 2FX      -0.719500
      2 C2          -3.2630     0.3370     0.2250 c          1 2FX       0.723000
      3 O3          -2.8490     1.3760     0.7780 o          1 2FX      -0.719500
      4 C4          -0.8690    -0.2370    -0.4700 cc         1 2FX       0.042400
      5 C5           0.0540    -1.1900    -0.7480 cd         1 2FX      -0.264200
      6 C6           1.3850    -0.8350    -0.3540 ca         1 2FX      -0.051800
      7 C7           2.5740    -1.5650    -0.4720 ca         1 2FX      -0.092000
      8 C8           3.7570    -1.0150    -0.0210 ca         1 2FX      -0.133000
      9 C9           3.7800     0.2610     0.5560 ca         1 2FX      -0.140000
     10 C10          2.6160     0.9980     0.6880 ca         1 2FX      -0.074000
     11 C11          1.4240     0.4450     0.2270 ca         1 2FX      -0.225000
     12 S12         -0.1610     1.1530     0.3120 ss         1 2FX       0.173400
     13 C13         -2.3160    -0.2800    -0.8220 c3         1 2FX      -0.176200
     14 H5          -0.1970    -2.1250    -1.2320 ha         1 2FX       0.187000
     15 H7           2.5610    -2.5530    -0.9170 ha         1 2FX       0.099000
     16 H8           4.6790    -1.5740    -0.1140 ha         1 2FX       0.090000
     17 H9           4.7180     0.6770     0.9000 ha         1 2FX       0.091000
     18 H10          2.6360     1.9830     1.1380 ha         1 2FX       0.106000
     19 H13         -2.5900    -1.3120    -1.0450 hc         1 2FX       0.042200
     20 H13A        -2.4680     0.2840    -1.7520 hc         1 2FX       0.042200
@<TRIPOS>BOND
     1     1     2 1   
     2     2     3 1   
     3     2    13 1   
     4     4     5 2   
     5     4    12 1   
     6     4    13 1   
     7     5     6 1   
     8     5    14 1   
     9     6     7 ar  
    10     6    11 ar  
    11     7     8 ar  
    12     7    15 1   
    13     8     9 ar  
    14     8    16 1   
    15     9    10 ar  
    16     9    17 1   
    17    10    11 ar  
    18    10    18 1   
    19    11    12 1   
    20    13    19 1   
    21    13    20 1   
@<TRIPOS>SUBSTRUCTURE
     1 2FX         1 TEMP              0 ****  ****    0 ROOT
