@<TRIPOS>MOLECULE
2FY
   22    22     1     0     0
SMALL
bcc


@<TRIPOS>ATOM
      1 C5          -0.6490     1.0020    -0.1510 ca         1 2FY       0.266100
      2 C4          -2.0270     0.7990    -0.1630 ca         1 2FY      -0.308000
      3 C3          -2.5420    -0.4880    -0.1170 ca         1 2FY       0.219100
      4 C2          -1.6830    -1.5960    -0.0540 ca         1 2FY      -0.226000
      5 C1          -0.3270    -1.3860    -0.0410 ca         1 2FY      -0.006000
      6 C7           4.0820    -0.6950     0.0020 c3         1 2FY      -0.079100
      7 O1           2.1360     1.2630    -0.1250 o          1 2FY      -0.580100
      8 O2          -3.8550    -0.7350    -0.1290 oh         1 2FY      -0.484100
      9 C9           2.6080    -1.0610     0.0170 c3         1 2FY      -0.167400
     10 C10          0.2340    -0.1010    -0.0880 ca         1 2FY      -0.342600
     11 O8          -0.2080     2.2550    -0.1970 oh         1 2FY      -0.506100
     12 H1           0.3220    -2.2500     0.0070 ha         1 2FY       0.132000
     13 H2          -2.0920    -2.5970    -0.0170 ha         1 2FY       0.153000
     14 H4          -2.6860     1.6590    -0.2110 ha         1 2FY       0.152000
     15 HA          -4.3610     0.0850    -0.1800 ho         1 2FY       0.435000
     16 H8           0.7790     2.2120    -0.1820 ho         1 2FY       0.481000
     17 H91C         2.3650    -1.6170     0.9270 hc         1 2FY       0.063700
     18 H92C         2.3820    -1.7460    -0.8050 hc         1 2FY       0.063700
     19 H71C         4.3450    -0.0320     0.8250 hc         1 2FY       0.042033
     20 H72C         4.6830    -1.5980     0.0990 hc         1 2FY       0.042033
     21 H73C         4.3680    -0.2060    -0.9290 hc         1 2FY       0.042033
     22 C6           1.6780     0.1210    -0.0730 c          1 2FY       0.608700
@<TRIPOS>BOND
     1     1     2 ar  
     2     1    10 ar  
     3     1    11 1   
     4     2     3 ar  
     5     2    14 1   
     6     3     4 ar  
     7     3     8 1   
     8     4     5 ar  
     9     4    13 1   
    10     5    10 ar  
    11     5    12 1   
    12     6     9 1   
    13     6    19 1   
    14     6    20 1   
    15     6    21 1   
    16     7    22 2   
    17     8    15 1   
    18     9    17 1   
    19     9    18 1   
    20     9    22 1   
    21    10    22 1   
    22    11    16 1   
@<TRIPOS>SUBSTRUCTURE
     1 2FY         1 TEMP              0 ****  ****    0 ROOT
