@<TRIPOS>MOLECULE
2FY
   22    22     1     0     0
SMALL
No Charge or Current Charge


@<TRIPOS>ATOM
      1 C5          -0.7000     1.0030    -0.1590 ca         1 2FY       0.266100
      2 C4          -2.0830     0.7900    -0.1710 ca         1 2FY      -0.290000
      3 C3          -2.5910    -0.5090    -0.1130 ca         1 2FY       0.219100
      4 C2          -1.7170    -1.5970    -0.0420 ca         1 2FY      -0.208000
      5 C1          -0.3290    -1.3920    -0.0290 ca         1 2FY       0.012000
      6 C7           4.1750    -0.7170     0.0140 c3         1 2FY      -0.079100
      7 O1           2.1470     1.2910    -0.1270 o          1 2FY      -0.580100
      8 O2          -3.9340    -0.7190    -0.1250 oh         1 2FY      -0.523100
      9 C9           2.6660    -1.0540     0.0050 c3         1 2FY      -0.167400
     10 C10          0.2040    -0.0810    -0.0880 ca         1 2FY      -0.342600
     11 O8          -0.2550     2.2830    -0.2180 oh         1 2FY      -0.545100
     12 H1           0.3130    -2.2680     0.0270 ha         1 2FY       0.114000
     13 H2          -2.1160    -2.6070     0.0030 ha         1 2FY       0.135000
     14 H4          -2.7530     1.6430    -0.2270 ha         1 2FY       0.134000
     15 HA          -4.3760     0.1540    -0.1770 ho         1 2FY       0.474000
     16 H8           0.7350     2.2160    -0.1980 ho         1 2FY       0.520000
     17 H91C         2.3860    -1.6510     0.8800 hc         1 2FY       0.063700
     18 H92C         2.4160    -1.7390    -0.8140 hc         1 2FY       0.063700
     19 H71C         4.4290    -0.0900     0.8770 hc         1 2FY       0.042033
     20 H72C         4.7720    -1.6350     0.0720 hc         1 2FY       0.042033
     21 H73C         4.4600    -0.1820    -0.9010 hc         1 2FY       0.042033
     22 C6           1.7040     0.1480    -0.0740 c          1 2FY       0.608700
@<TRIPOS>BOND
     1     1     2 ar  
     2     1    10 ar  
     3     1    11 1   
     4     2     3 ar  
     5     2    14 1   
     6     3     4 ar  
     7     3     8 1   
     8     4     5 ar  
     9     4    13 1   
    10     5    10 ar  
    11     5    12 1   
    12     6     9 1   
    13     6    19 1   
    14     6    20 1   
    15     6    21 1   
    16     7    22 2   
    17     8    15 1   
    18     9    17 1   
    19     9    18 1   
    20     9    22 1   
    21    10    22 1   
    22    11    16 1   
@<TRIPOS>SUBSTRUCTURE
     1 2FY         1 TEMP              0 ****  ****    0 ROOT
