@<TRIPOS>MOLECULE
2FZ
   64    68     1     0     0
SMALL
No Charge or Current Charge


@<TRIPOS>ATOM
      1 C7          -0.4650     1.4000    -0.0760 ca         1 2FZ      -0.092000
      2 C6           1.3000    -4.2130     1.6270 ca         1 2FZ      -0.163000
      3 C1           2.0290    -3.9150    -1.0680 ca         1 2FZ      -0.045500
      4 C5           1.8420    -5.1990    -0.5250 ca         1 2FZ      -0.163000
      5 C4          -0.0820     3.9270     1.0710 ca         1 2FZ      -0.115000
      6 C3          -1.3770     3.3920     0.9680 ca         1 2FZ      -0.123000
      7 C2           1.4850    -2.9260     1.0910 ca         1 2FZ      -0.045500
      8 C8           1.8540    -2.7600    -0.2690 ca         1 2FZ      -0.172600
      9 C9           0.8450     1.9190     0.0400 ca         1 2FZ      -0.158300
     10 C10         -1.5830     2.1250     0.3840 ca         1 2FZ       0.249000
     11 C11          1.0240     3.2050     0.5980 ca         1 2FZ       0.115100
     12 C12          1.4790    -5.3440     0.8190 ca         1 2FZ       0.193000
     13 C14          5.7840     1.2370    -0.1810 c          1 2FZ       0.635100
     14 C15         -3.9880     1.9610     1.1940 c6         1 2FZ       0.191800
     15 C16         -3.3840     1.1220    -1.0780 c6         1 2FZ       0.191800
     16 C17         -5.1250     0.8900     1.2570 c6         1 2FZ       0.159300
     17 C18         -4.5330     0.0690    -0.9660 c6         1 2FZ       0.159300
     18 C19         -7.6310    -0.7200    -1.2940 cy         1 2FZ       0.143600
     19 C20         -8.1330    -0.0240     0.5880 cy         1 2FZ       0.143600
     20 C21          3.3710     3.2160    -0.0490 c6         1 2FZ       0.139600
     21 C22          2.0520     1.1050    -0.4510 c6         1 2FZ       0.157000
     22 C23         -6.7600    -0.4730    -0.0170 cy         1 2FZ       0.105500
     23 C24          3.3940     1.6760     0.0790 c6         1 2FZ       0.140300
     24 N26         -2.8810     1.5710     0.2610 nh         1 2FZ      -0.781400
     25 N27         -5.6570     0.5290    -0.0930 n3         1 2FZ      -0.706600
     26 N28          1.8940    -0.3070    -0.0620 ns         1 2FZ      -0.499900
     27 N29          6.6350     0.6130    -1.0440 ns         1 2FZ      -0.498900
     28 O30          2.3590    -1.2550    -2.0680 o          1 2FZ      -0.595100
     29 O31          6.1170     1.8130     0.8410 o          1 2FZ      -0.540000
     30 O32          2.2740     3.7750     0.7060 os         1 2FZ      -0.332100
     31 O33         -8.7820    -0.9170    -0.3910 oq         1 2FZ      -0.446000
     32 O34          4.5100     1.0910    -0.6360 os         1 2FZ      -0.455100
     33 F35          1.3000    -6.5770     1.3390 f          1 2FZ      -0.173000
     34 H1          -0.6190     0.4190    -0.5140 ha         1 2FZ       0.124000
     35 H3           2.3110    -3.8220    -2.1150 ha         1 2FZ       0.129500
     36 H4           1.9790    -6.0800    -1.1470 ha         1 2FZ       0.137000
     37 H5           0.0660     4.9110     1.5100 ha         1 2FZ       0.130000
     38 H6          -2.2180     3.9760     1.3270 ha         1 2FZ       0.118000
     39 H7           1.3360    -2.0720     1.7480 ha         1 2FZ       0.129500
     40 H8          -4.4250     2.9180     0.8710 h1         1 2FZ       0.045950
     41 H9          -3.5960     2.1050     2.2110 h1         1 2FZ       0.045950
     42 H10         -2.5720     0.6830    -1.6740 h1         1 2FZ       0.045950
     43 H11         -3.7590     1.9910    -1.6370 h1         1 2FZ       0.045950
     44 H12         -4.7290    -0.0070     1.7570 h1         1 2FZ       0.041700
     45 H13         -5.9320     1.2800     1.8950 h1         1 2FZ       0.041700
     46 H14         -4.9000    -0.1510    -1.9790 h1         1 2FZ       0.041700
     47 H15         -4.1090    -0.8660    -0.5710 h1         1 2FZ       0.041700
     48 H16         -7.7640     0.1590    -1.9380 h1         1 2FZ       0.056450
     49 H17         -7.3850    -1.6170    -1.8720 h1         1 2FZ       0.056450
     50 H18         -8.3160    -0.3250     1.6260 h1         1 2FZ       0.056450
     51 H19         -8.3900     1.0280     0.4150 h1         1 2FZ       0.056450
     52 H20          4.3090     3.6550     0.3170 h1         1 2FZ       0.071200
     53 H21          3.2520     3.4970    -1.1060 h1         1 2FZ       0.071200
     54 H22          2.0670     1.1760    -1.5490 h1         1 2FZ       0.106700
     55 H23         -6.4180    -1.4170     0.4230 h1         1 2FZ       0.044700
     56 H24          3.4830     1.4180     1.1440 h1         1 2FZ       0.084700
     57 H25          8.5320    -0.0040    -1.7090 h1         1 2FZ       0.043033
     58 H26          8.4990     1.5690    -0.8550 h1         1 2FZ       0.043033
     59 H27          8.3260     0.0440     0.0690 h1         1 2FZ       0.043033
     60 H29          1.6400    -0.5030     0.8960 hn         1 2FZ       0.320500
     61 H30          6.2080     0.1690    -1.8470 hn         1 2FZ       0.336500
     62 C13          2.0630    -1.3940    -0.8890 c          1 2FZ       0.624700
     63 H2           1.0180    -4.3350     2.6700 ha         1 2FZ       0.137000
     64 C25          8.0870     0.5520    -0.8740 c3         1 2FZ       0.109300
@<TRIPOS>BOND
     1     1     9 ar  
     2     1    10 ar  
     3     1    34 1   
     4     2     7 ar  
     5     2    12 ar  
     6     2    63 1   
     7     3     4 ar  
     8     3     8 ar  
     9     3    35 1   
    10     4    12 ar  
    11     4    36 1   
    12     5     6 ar  
    13     5    11 ar  
    14     5    37 1   
    15     6    10 ar  
    16     6    38 1   
    17     7     8 ar  
    18     7    39 1   
    19     8    62 1   
    20     9    11 ar  
    21     9    21 1   
    22    10    24 1   
    23    11    30 1   
    24    12    33 1   
    25    13    27 1   
    26    13    29 2   
    27    13    32 1   
    28    14    16 1   
    29    14    24 1   
    30    14    40 1   
    31    14    41 1   
    32    15    17 1   
    33    15    24 1   
    34    15    42 1   
    35    15    43 1   
    36    16    25 1   
    37    16    44 1   
    38    16    45 1   
    39    17    25 1   
    40    17    46 1   
    41    17    47 1   
    42    18    22 1   
    43    18    31 1   
    44    18    48 1   
    45    18    49 1   
    46    19    22 1   
    47    19    31 1   
    48    19    50 1   
    49    19    51 1   
    50    20    23 1   
    51    20    30 1   
    52    20    52 1   
    53    20    53 1   
    54    21    23 1   
    55    21    26 1   
    56    21    54 1   
    57    22    25 1   
    58    22    55 1   
    59    23    32 1   
    60    23    56 1   
    61    26    60 1   
    62    26    62 1   
    63    27    61 1   
    64    27    64 1   
    65    28    62 2   
    66    57    64 1   
    67    58    64 1   
    68    59    64 1   
@<TRIPOS>SUBSTRUCTURE
     1 2FZ         1 TEMP              0 ****  ****    0 ROOT
