@<TRIPOS>MOLECULE
2FZ
   64    68     1     0     0
SMALL
bcc


@<TRIPOS>ATOM
      1 C7          -0.5400     1.3090    -0.0220 ca         1 2FZ      -0.110000
      2 C6           2.5990    -4.1890     1.4410 ca         1 2FZ      -0.181000
      3 C1           1.5970    -3.7530    -1.1170 ca         1 2FZ      -0.063500
      4 C5           1.6270    -5.0390    -0.6070 ca         1 2FZ      -0.181000
      5 C4          -0.2470     3.8720     0.9380 ca         1 2FZ      -0.133000
      6 C3          -1.5040     3.2910     0.8950 ca         1 2FZ      -0.141000
      7 C2           2.5490    -2.9060     0.9200 ca         1 2FZ      -0.063500
      8 C8           2.0410    -2.6720    -0.3560 ca         1 2FZ      -0.172600
      9 C9           0.7240     1.8810     0.0020 ca         1 2FZ      -0.158300
     10 C10         -1.6780     1.9930     0.4100 ca         1 2FZ       0.110600
     11 C11          0.8700     3.1810     0.4880 ca         1 2FZ       0.115100
     12 C12          2.1290    -5.2330     0.6670 ca         1 2FZ       0.157900
     13 C14          5.4780     1.0930    -0.0670 c          1 2FZ       0.751100
     14 C15         -4.0190     1.9780     1.0800 c6         1 2FZ       0.191800
     15 C16         -3.3470     0.8500    -0.9270 c6         1 2FZ       0.191800
     16 C17         -5.1760     1.0060     1.2170 c6         1 2FZ       0.159300
     17 C18         -4.5150    -0.1030    -0.7750 c6         1 2FZ       0.159300
     18 C19         -7.5060    -0.5930    -1.2960 cy         1 2FZ       0.120400
     19 C20         -8.0690     0.3420     0.4460 cy         1 2FZ       0.120400
     20 C21          3.1290     3.2490    -0.1760 c6         1 2FZ       0.116400
     21 C22          1.9280     1.1010    -0.4820 c6         1 2FZ       0.157000
     22 C23         -6.7580    -0.3230     0.0140 cy         1 2FZ       0.105500
     23 C24          3.2000     1.7470     0.0490 c6         1 2FZ       0.117100
     24 N26         -2.9230     1.3480     0.3750 nh         1 2FZ      -0.643000
     25 N27         -5.6150     0.5470    -0.0870 n3         1 2FZ      -0.706600
     26 N28          1.8640    -0.2880    -0.1050 ns         1 2FZ      -0.566900
     27 N29          6.3700     0.4930    -0.8630 ns         1 2FZ      -0.565900
     28 O30          2.0720    -1.1650    -2.1810 o          1 2FZ      -0.595100
     29 O31          5.7050     1.5060     1.0510 o          1 2FZ      -0.589000
     30 O32          2.0700     3.8090     0.5740 os         1 2FZ      -0.308900
     31 O33         -8.7220    -0.0470    -0.7680 oq         1 2FZ      -0.399600
     32 O34          4.2810     1.1890    -0.6760 os         1 2FZ      -0.431900
     33 F35          2.1670    -6.4760     1.1630 f          1 2FZ      -0.137900
     34 H1          -0.6360     0.2850    -0.3630 ha         1 2FZ       0.142000
     35 H3           1.2140    -3.5880    -2.1150 ha         1 2FZ       0.147500
     36 H4           1.2720    -5.8780    -1.1900 ha         1 2FZ       0.155000
     37 H5          -0.1300     4.8780     1.3200 ha         1 2FZ       0.148000
     38 H6          -2.3470     3.8750     1.2400 ha         1 2FZ       0.136000
     39 H7           2.9410    -2.0960     1.5220 ha         1 2FZ       0.147500
     40 H8          -4.3710     2.8890     0.5700 h1         1 2FZ       0.045950
     41 H9          -3.6910     2.2680     2.0800 h1         1 2FZ       0.045950
     42 H10         -2.5280     0.3230    -1.4120 h1         1 2FZ       0.045950
     43 H11         -3.6380     1.6810    -1.5880 h1         1 2FZ       0.045950
     44 H12         -4.8680     0.1660     1.8610 h1         1 2FZ       0.041700
     45 H13         -6.0000     1.5150     1.7210 h1         1 2FZ       0.041700
     46 H14         -4.8410    -0.4150    -1.7700 h1         1 2FZ       0.041700
     47 H15         -4.1800    -1.0080    -0.2400 h1         1 2FZ       0.041700
     48 H16         -7.1300    -0.0220    -2.1510 h1         1 2FZ       0.056450
     49 H17         -7.6100    -1.6420    -1.5850 h1         1 2FZ       0.056450
     50 H18         -8.5530    -0.0750     1.3330 h1         1 2FZ       0.056450
     51 H19         -8.0050     1.4300     0.5550 h1         1 2FZ       0.056450
     52 H20          4.0420     3.7390     0.1620 h1         1 2FZ       0.071200
     53 H21          3.0010     3.4620    -1.2450 h1         1 2FZ       0.071200
     54 H22          1.9530     1.1390    -1.5750 h1         1 2FZ       0.106700
     55 H23         -6.5330    -1.2410     0.5790 h1         1 2FZ       0.044700
     56 H24          3.3020     1.5430     1.1190 h1         1 2FZ       0.084700
     57 H25          8.2770    -0.1710    -1.2680 h1         1 2FZ       0.043033
     58 H26          8.2190     1.1650    -0.1220 h1         1 2FZ       0.043033
     59 H27          7.7690    -0.4650     0.3960 h1         1 2FZ       0.043033
     60 H29          1.6970    -0.4870     0.8690 hn         1 2FZ       0.320500
     61 H30          6.0710     0.1350    -1.7550 hn         1 2FZ       0.336500
     62 C13          2.0010    -1.3120    -0.9710 c          1 2FZ       0.691700
     63 H2           3.0040    -4.3740     2.4270 ha         1 2FZ       0.155000
     64 C25          7.7240     0.2450    -0.4310 c3         1 2FZ       0.109300
@<TRIPOS>BOND
     1     1     9 ar  
     2     1    10 ar  
     3     1    34 1   
     4     2     7 ar  
     5     2    12 ar  
     6     2    63 1   
     7     3     4 ar  
     8     3     8 ar  
     9     3    35 1   
    10     4    12 ar  
    11     4    36 1   
    12     5     6 ar  
    13     5    11 ar  
    14     5    37 1   
    15     6    10 ar  
    16     6    38 1   
    17     7     8 ar  
    18     7    39 1   
    19     8    62 1   
    20     9    11 ar  
    21     9    21 1   
    22    10    24 1   
    23    11    30 1   
    24    12    33 1   
    25    13    27 1   
    26    13    29 2   
    27    13    32 1   
    28    14    16 1   
    29    14    24 1   
    30    14    40 1   
    31    14    41 1   
    32    15    17 1   
    33    15    24 1   
    34    15    42 1   
    35    15    43 1   
    36    16    25 1   
    37    16    44 1   
    38    16    45 1   
    39    17    25 1   
    40    17    46 1   
    41    17    47 1   
    42    18    22 1   
    43    18    31 1   
    44    18    48 1   
    45    18    49 1   
    46    19    22 1   
    47    19    31 1   
    48    19    50 1   
    49    19    51 1   
    50    20    23 1   
    51    20    30 1   
    52    20    52 1   
    53    20    53 1   
    54    21    23 1   
    55    21    26 1   
    56    21    54 1   
    57    22    25 1   
    58    22    55 1   
    59    23    32 1   
    60    23    56 1   
    61    26    60 1   
    62    26    62 1   
    63    27    61 1   
    64    27    64 1   
    65    28    62 2   
    66    57    64 1   
    67    58    64 1   
    68    59    64 1   
@<TRIPOS>SUBSTRUCTURE
     1 2FZ         1 TEMP              0 ****  ****    0 ROOT
