@<TRIPOS>MOLECULE
2G0
   83    84     1     0     0
SMALL
No Charge or Current Charge


@<TRIPOS>ATOM
      1 C1           4.3890    -1.6610     0.5810 c6         1 2G0       0.181300
      2 C2           5.4050    -2.8290     0.3410 c6         1 2G0       0.139300
      3 O2           4.7290    -4.0300    -0.1050 oh         1 2G0      -0.709000
      4 C3           6.4580    -2.3760    -0.7230 c6         1 2G0       0.151300
      5 O3           7.3410    -1.3690    -0.2100 oh         1 2G0      -0.660000
      6 C4           5.7570    -1.8370    -2.0150 c6         1 2G0       0.105300
      7 O4           6.7500    -1.2940    -2.9180 oh         1 2G0      -0.729000
      8 C5           4.6140    -0.7990    -1.7030 c6         1 2G0       0.148300
      9 O5           3.7350    -1.2980    -0.6640 os         1 2G0      -0.448000
     10 C6           5.0710     0.6440    -1.3280 c3         1 2G0      -0.119100
     11 C7           3.2660    -2.0340     1.5790 c3         1 2G0      -0.147400
     12 C8           2.4580    -0.8070     1.9800 c          1 2G0       0.611100
     13 O6           2.8710     0.0090     2.7920 o          1 2G0      -0.621100
     14 N1           1.2140    -0.7060     1.3990 ns         1 2G0      -0.478900
     15 C9           0.2520     0.3990     1.6120 c3         1 2G0       0.046700
     16 C10         -1.2090    -0.1520     1.6260 c          1 2G0       0.603100
     17 O7          -1.4800    -1.2540     1.1580 o          1 2G0      -0.607100
     18 C11          0.4290     1.5060     0.5340 c3         1 2G0      -0.089400
     19 C12          1.7170     2.3480     0.6890 c3         1 2G0      -0.077400
     20 C13          1.8410     3.4660    -0.3690 c3         1 2G0      -0.080400
     21 C14          3.1240     4.3070    -0.2020 c3         1 2G0       0.148800
     22 N2           3.2100     5.3710    -1.2180 n8         1 2G0      -0.994200
     23 N3          -2.2380     0.6680     2.1400 n          1 2G0      -0.393800
     24 C15         -3.6720     0.2680     2.0650 c5         1 2G0       0.031700
     25 C16         -4.3130     0.5060     0.6600 c          1 2G0       0.601100
     26 O8          -3.8550     1.1690    -0.2630 o          1 2G0      -0.601100
     27 C17         -4.3230     1.2210     3.1170 c5         1 2G0      -0.085400
     28 C18         -3.4200     2.4770     3.0370 c5         1 2G0      -0.094400
     29 C19         -2.0090     1.8420     3.0110 c5         1 2G0       0.108000
     30 N4          -5.5070    -0.1820     0.5830 ns         1 2G0      -0.482900
     31 C20         -6.3860    -0.2410    -0.6080 c3         1 2G0       0.037700
     32 C21         -7.8700     0.0040    -0.1910 c          1 2G0       0.594100
     33 O9          -8.2430     0.1130     0.9670 o          1 2G0      -0.608100
     34 C22         -6.2090    -1.5860    -1.3720 c3         1 2G0      -0.085400
     35 C23         -4.7970    -1.8500    -1.9700 c3         1 2G0      -0.058700
     36 C24         -4.6740    -3.3070    -2.4700 c3         1 2G0      -0.090600
     37 C25         -4.4360    -0.8580    -3.1020 c3         1 2G0      -0.090600
     38 N5          -8.7760     0.0890    -1.1930 nt         1 2G0      -0.602000
     39 H1           4.9290    -0.7940     0.9890 h1         1 2G0       0.077700
     40 H2           5.9310    -3.0280     1.2880 h1         1 2G0       0.059700
     41 HO2          5.3640    -4.7770    -0.0050 ho         1 2G0       0.503000
     42 H3           7.0560    -3.2550    -1.0070 h1         1 2G0       0.039700
     43 HO3          7.6490    -0.9080    -1.0260 ho         1 2G0       0.467000
     44 H4           5.2720    -2.7020    -2.4910 h1         1 2G0       0.056700
     45 HO4          6.3360    -1.2400    -3.8120 ho         1 2G0       0.513000
     46 H5           4.0050    -0.7010    -2.6140 h1         1 2G0       0.060700
     47 H6           5.6260     1.1050    -2.1530 hc         1 2G0       0.049033
     48 H6A          4.2030     1.2830    -1.1330 hc         1 2G0       0.049033
     49 H6B          5.7140     0.6800    -0.4430 hc         1 2G0       0.049033
     50 H7           2.6090    -2.7800     1.1170 hc         1 2G0       0.077200
     51 H7A          3.7190    -2.4520     2.4850 hc         1 2G0       0.077200
     52 HN1          0.9520    -1.4470     0.7580 hn         1 2G0       0.326500
     53 H9           0.4330     0.8330     2.6030 h1         1 2G0       0.078700
     54 H11          0.4130     1.0420    -0.4610 hc         1 2G0       0.061700
     55 H11A        -0.4310     2.1860     0.5620 hc         1 2G0       0.061700
     56 H12          1.7350     2.7950     1.6910 hc         1 2G0       0.042700
     57 H12A         2.5920     1.6930     0.6150 hc         1 2G0       0.042700
     58 H13          1.8300     3.0160    -1.3690 hc         1 2G0       0.048200
     59 H13A         0.9670     4.1250    -0.3000 hc         1 2G0       0.048200
     60 H14          3.1350     4.7710     0.7940 h1         1 2G0       0.026200
     61 H14A         4.0070     3.6600    -0.2930 h1         1 2G0       0.026200
     62 HN2          4.1040     5.8650    -1.1100 hn         1 2G0       0.390500
     63 HN2A         3.2840     4.9390    -2.1470 hn         1 2G0       0.390500
     64 H15         -3.8150    -0.7870     2.3380 h1         1 2G0       0.077700
     65 H17         -5.3770     1.4420     2.9110 hc         1 2G0       0.064200
     66 H17A        -4.2800     0.7770     4.1190 hc         1 2G0       0.064200
     67 H18         -3.6120     3.0520     2.1240 hc         1 2G0       0.063200
     68 H18A        -3.5570     3.1550     3.8870 hc         1 2G0       0.063200
     69 H19         -1.6900     1.5230     4.0130 h1         1 2G0       0.049700
     70 H19A        -1.2620     2.5400     2.6140 h1         1 2G0       0.049700
     71 HN4         -5.8100    -0.6670     1.4200 hn         1 2G0       0.321500
     72 H20         -6.1300     0.5860    -1.2820 h1         1 2G0       0.075700
     73 H22         -6.4620    -2.4020    -0.6830 hc         1 2G0       0.053200
     74 H22A        -6.9400    -1.6430    -2.1880 hc         1 2G0       0.053200
     75 H23         -4.0560    -1.7280    -1.1710 hc         1 2G0       0.047700
     76 H24         -5.3900    -3.5070    -3.2770 hc         1 2G0       0.036033
     77 H24A        -3.6640    -3.5030    -2.8520 hc         1 2G0       0.036033
     78 H24B        -4.8670    -4.0160    -1.6560 hc         1 2G0       0.036033
     79 H25         -5.1500    -0.9340    -3.9300 hc         1 2G0       0.036033
     80 H25A        -4.4370     0.1770    -2.7440 hc         1 2G0       0.036033
     81 H25B        -3.4340    -1.0700    -3.4950 hc         1 2G0       0.036033
     82 HN5         -8.4820     0.0040    -2.1550 hn         1 2G0       0.314000
     83 HN5A        -9.7470     0.2450    -0.9660 hn         1 2G0       0.314000
@<TRIPOS>BOND
     1     1     2 1   
     2     1     9 1   
     3     1    11 1   
     4     1    39 1   
     5     2     3 1   
     6     2     4 1   
     7     2    40 1   
     8     3    41 1   
     9     4     5 1   
    10     4     6 1   
    11     4    42 1   
    12     5    43 1   
    13     6     7 1   
    14     6     8 1   
    15     6    44 1   
    16     7    45 1   
    17     8     9 1   
    18     8    10 1   
    19     8    46 1   
    20    10    47 1   
    21    10    48 1   
    22    10    49 1   
    23    11    12 1   
    24    11    50 1   
    25    11    51 1   
    26    12    13 2   
    27    12    14 1   
    28    14    15 1   
    29    14    52 1   
    30    15    16 1   
    31    15    18 1   
    32    15    53 1   
    33    16    17 2   
    34    16    23 1   
    35    18    19 1   
    36    18    54 1   
    37    18    55 1   
    38    19    20 1   
    39    19    56 1   
    40    19    57 1   
    41    20    21 1   
    42    20    58 1   
    43    20    59 1   
    44    21    22 1   
    45    21    60 1   
    46    21    61 1   
    47    22    62 1   
    48    22    63 1   
    49    23    24 1   
    50    23    29 1   
    51    24    25 1   
    52    24    27 1   
    53    24    64 1   
    54    25    26 2   
    55    25    30 1   
    56    27    28 1   
    57    27    65 1   
    58    27    66 1   
    59    28    29 1   
    60    28    67 1   
    61    28    68 1   
    62    29    69 1   
    63    29    70 1   
    64    30    31 1   
    65    30    71 1   
    66    31    32 1   
    67    31    34 1   
    68    31    72 1   
    69    32    33 2   
    70    32    38 1   
    71    34    35 1   
    72    34    73 1   
    73    34    74 1   
    74    35    36 1   
    75    35    37 1   
    76    35    75 1   
    77    36    76 1   
    78    36    77 1   
    79    36    78 1   
    80    37    79 1   
    81    37    80 1   
    82    37    81 1   
    83    38    82 1   
    84    38    83 1   
@<TRIPOS>SUBSTRUCTURE
     1 2G0         1 TEMP              0 ****  ****    0 ROOT
