@<TRIPOS>MOLECULE
2G0
   83    84     1     0     0
SMALL
abcg2


@<TRIPOS>ATOM
      1 C1           4.3320    -1.7900     0.1970 c6         1 2G0       0.181300
      2 C2           5.3500    -2.7650    -0.3770 c6         1 2G0       0.139300
      3 O2           5.2360    -2.7670    -1.7790 oh         1 2G0      -0.709000
      4 C3           6.7620    -2.3540     0.0550 c6         1 2G0       0.151300
      5 O3           6.8930    -2.6520     1.4250 oh         1 2G0      -0.660000
      6 C4           6.9900    -0.8790    -0.2600 c6         1 2G0       0.105300
      7 O4           8.2580    -0.5330     0.2490 oh         1 2G0      -0.729000
      8 C5           5.8700     0.0340     0.2700 c6         1 2G0       0.148300
      9 O5           4.6210    -0.4600    -0.1820 os         1 2G0      -0.448000
     10 C6           5.8820     0.3140     1.7670 c3         1 2G0      -0.119100
     11 C7           2.9100    -2.0740    -0.2610 c3         1 2G0      -0.147400
     12 C8           1.9440    -1.1880     0.4910 c          1 2G0       0.611100
     13 O6           1.7460    -1.3210     1.6930 o          1 2G0      -0.621100
     14 N1           1.3370    -0.2370    -0.2310 ns         1 2G0      -0.478900
     15 C9           0.3980     0.6800     0.3540 c3         1 2G0       0.046700
     16 C10         -0.9330    -0.0250     0.6130 c          1 2G0       0.603100
     17 O7          -1.3040    -0.9520    -0.0920 o          1 2G0      -0.607100
     18 C11          0.1720     1.8720    -0.5820 c3         1 2G0      -0.089400
     19 C12          1.4280     2.7100    -0.7910 c3         1 2G0      -0.077400
     20 C13          1.1630     3.9500    -1.6350 c3         1 2G0      -0.080400
     21 C14          2.4320     4.7390    -1.9190 c3         1 2G0       0.148800
     22 N2           2.1400     5.9420    -2.6870 n8         1 2G0      -0.994200
     23 N3          -1.6920     0.4500     1.6120 n          1 2G0      -0.393800
     24 C15         -3.0260    -0.0760     1.8020 c5         1 2G0       0.031700
     25 C16         -3.9030     0.2460     0.5990 c          1 2G0       0.601100
     26 O8          -3.7200     1.2250    -0.1050 o          1 2G0      -0.601100
     27 C17         -3.5310     0.6570     3.0540 c5         1 2G0      -0.085400
     28 C18         -2.7520     1.9670     3.0440 c5         1 2G0      -0.094400
     29 C19         -1.3850     1.5580     2.5120 c5         1 2G0       0.108000
     30 N4          -4.9230    -0.6070     0.4140 ns         1 2G0      -0.482900
     31 C20         -5.9630    -0.3450    -0.5410 c3         1 2G0       0.037700
     32 C21         -6.7230     0.9300    -0.1650 c          1 2G0       0.594100
     33 O9          -6.8720     1.2680     0.9980 o          1 2G0      -0.608100
     34 C22         -6.9470    -1.5180    -0.5890 c3         1 2G0      -0.085400
     35 C23         -6.3170    -2.8780    -0.9040 c3         1 2G0      -0.058700
     36 C24         -7.4060    -3.9470    -0.9230 c3         1 2G0      -0.090600
     37 C25         -5.5390    -2.8700    -2.2140 c3         1 2G0      -0.090600
     38 N5          -7.2460     1.5900    -1.2060 nt         1 2G0      -0.602000
     39 H1           4.3640    -1.9040     1.2880 h1         1 2G0       0.077700
     40 H2           5.1360    -3.7600     0.0410 h1         1 2G0       0.059700
     41 HO2          5.7970    -3.4670    -2.1290 ho         1 2G0       0.503000
     42 H3           7.4900    -2.9410    -0.5300 h1         1 2G0       0.039700
     43 HO3          7.6920    -2.2250     1.7510 ho         1 2G0       0.467000
     44 H4           6.9760    -0.7910    -1.3550 h1         1 2G0       0.056700
     45 HO4          8.4460     0.3840     0.0220 ho         1 2G0       0.513000
     46 H5           5.9810     1.0000    -0.2360 h1         1 2G0       0.060700
     47 H6           6.8250     0.7720     2.0610 hc         1 2G0       0.049033
     48 H6A          5.0880     1.0210     2.0090 hc         1 2G0       0.049033
     49 H6B          5.7450    -0.5760     2.3780 hc         1 2G0       0.049033
     50 H7           2.8250    -1.9430    -1.3410 hc         1 2G0       0.077200
     51 H7A          2.6630    -3.1140    -0.0350 hc         1 2G0       0.077200
     52 HN1          1.4950    -0.1990    -1.2250 hn         1 2G0       0.326500
     53 H9           0.8160     1.0440     1.2960 h1         1 2G0       0.078700
     54 H11         -0.2050     1.5090    -1.5430 hc         1 2G0       0.061700
     55 H11A        -0.6200     2.4980    -0.1640 hc         1 2G0       0.061700
     56 H12          1.8290     3.0090     0.1830 hc         1 2G0       0.042700
     57 H12A         2.2050     2.1050    -1.2680 hc         1 2G0       0.042700
     58 H13          0.7020     3.6540    -2.5830 hc         1 2G0       0.048200
     59 H13A         0.4430     4.5990    -1.1260 hc         1 2G0       0.048200
     60 H14          2.8840     5.0430    -0.9710 h1         1 2G0       0.026200
     61 H14A         3.1590     4.0740    -2.4070 h1         1 2G0       0.026200
     62 HN2          3.0020     6.4430    -2.8640 hn         1 2G0       0.390500
     63 HN2A         1.7910     5.6770    -3.6000 hn         1 2G0       0.390500
     64 H15         -3.0040    -1.1570     1.9620 h1         1 2G0       0.077700
     65 H17         -4.6120     0.7950     3.0440 hc         1 2G0       0.064200
     66 H17A        -3.2820     0.0690     3.9390 hc         1 2G0       0.064200
     67 H18         -3.2170     2.6870     2.3690 hc         1 2G0       0.063200
     68 H18A        -2.6850     2.4270     4.0280 hc         1 2G0       0.063200
     69 H19         -0.7290     1.2240     3.3210 h1         1 2G0       0.049700
     70 H19A        -0.8900     2.3790     1.9960 h1         1 2G0       0.049700
     71 HN4         -5.0560    -1.3520     1.0790 hn         1 2G0       0.321500
     72 H20         -5.5160    -0.2130    -1.5310 h1         1 2G0       0.075700
     73 H22         -7.4720    -1.5770     0.3700 hc         1 2G0       0.053200
     74 H22A        -7.7050    -1.2960    -1.3450 hc         1 2G0       0.053200
     75 H23         -5.6190    -3.1360    -0.1000 hc         1 2G0       0.047700
     76 H24         -8.1180    -3.7650    -1.7310 hc         1 2G0       0.036033
     77 H24A        -6.9790    -4.9390    -1.0750 hc         1 2G0       0.036033
     78 H24B        -7.9640    -3.9660     0.0140 hc         1 2G0       0.036033
     79 H25         -6.1720    -2.5560    -3.0470 hc         1 2G0       0.036033
     80 H25A        -4.6770    -2.2010    -2.1780 hc         1 2G0       0.036033
     81 H25B        -5.1620    -3.8670    -2.4450 hc         1 2G0       0.036033
     82 HN5         -7.0610     1.3170    -2.1560 hn         1 2G0       0.314000
     83 HN5A        -7.8070     2.4140    -1.0630 hn         1 2G0       0.314000
@<TRIPOS>BOND
     1     1     2 1   
     2     1     9 1   
     3     1    11 1   
     4     1    39 1   
     5     2     3 1   
     6     2     4 1   
     7     2    40 1   
     8     3    41 1   
     9     4     5 1   
    10     4     6 1   
    11     4    42 1   
    12     5    43 1   
    13     6     7 1   
    14     6     8 1   
    15     6    44 1   
    16     7    45 1   
    17     8     9 1   
    18     8    10 1   
    19     8    46 1   
    20    10    47 1   
    21    10    48 1   
    22    10    49 1   
    23    11    12 1   
    24    11    50 1   
    25    11    51 1   
    26    12    13 2   
    27    12    14 1   
    28    14    15 1   
    29    14    52 1   
    30    15    16 1   
    31    15    18 1   
    32    15    53 1   
    33    16    17 2   
    34    16    23 1   
    35    18    19 1   
    36    18    54 1   
    37    18    55 1   
    38    19    20 1   
    39    19    56 1   
    40    19    57 1   
    41    20    21 1   
    42    20    58 1   
    43    20    59 1   
    44    21    22 1   
    45    21    60 1   
    46    21    61 1   
    47    22    62 1   
    48    22    63 1   
    49    23    24 1   
    50    23    29 1   
    51    24    25 1   
    52    24    27 1   
    53    24    64 1   
    54    25    26 2   
    55    25    30 1   
    56    27    28 1   
    57    27    65 1   
    58    27    66 1   
    59    28    29 1   
    60    28    67 1   
    61    28    68 1   
    62    29    69 1   
    63    29    70 1   
    64    30    31 1   
    65    30    71 1   
    66    31    32 1   
    67    31    34 1   
    68    31    72 1   
    69    32    33 2   
    70    32    38 1   
    71    34    35 1   
    72    34    73 1   
    73    34    74 1   
    74    35    36 1   
    75    35    37 1   
    76    35    75 1   
    77    36    76 1   
    78    36    77 1   
    79    36    78 1   
    80    37    79 1   
    81    37    80 1   
    82    37    81 1   
    83    38    82 1   
    84    38    83 1   
@<TRIPOS>SUBSTRUCTURE
     1 2G0         1 TEMP              0 ****  ****    0 ROOT
