@<TRIPOS>MOLECULE
2G1
   35    36     1     0     0
SMALL
No Charge or Current Charge


@<TRIPOS>ATOM
      1 C01          5.9240     2.3320    -1.8130 c3         1 2G1      -0.128400
      2 C02          5.0820     1.6010    -0.8100 cc         1 2G1       0.444700
      3 N03          3.9480     0.9940    -1.1250 nd         1 2G1      -0.644000
      4 C04          3.3900     0.4090     0.0070 cd         1 2G1       0.329500
      5 C05          4.1240     0.5940     1.1600 cc         1 2G1      -0.256000
      6 S06          5.5650     1.5240     0.8620 ss         1 2G1      -0.013400
      7 C07          2.1100    -0.3380    -0.0780 ca         1 2G1      -0.055500
      8 C08          1.5350    -0.9330     1.0690 ca         1 2G1      -0.111000
      9 C09          0.3220    -1.6390     0.9870 ca         1 2G1      -0.021000
     10 C10         -0.3420    -1.7640    -0.2480 ca         1 2G1      -0.314500
     11 C11          0.2180    -1.1760    -1.3980 ca         1 2G1      -0.021000
     12 C12          1.4300    -0.4720    -1.3120 ca         1 2G1      -0.111000
     13 S13         -1.9070    -2.6500    -0.3630 sy         1 2G1       1.153600
     14 O14         -1.9910    -3.3030    -1.6710 o          1 2G1      -0.528000
     15 O15         -2.1890    -3.3500     0.8920 o          1 2G1      -0.528000
     16 N16         -3.0010    -1.3910    -0.4330 n7         1 2G1      -0.867300
     17 C17         -2.8120    -0.2570     0.4850 c3         1 2G1       0.204800
     18 C18         -3.9850     0.7250     0.3210 c3         1 2G1      -0.156400
     19 C19         -3.8710     1.9780     1.2120 c3         1 2G1       0.301000
     20 F20         -2.7500     2.6800     0.9270 f          1 2G1      -0.116000
     21 F21         -4.9310     2.7950     1.0210 f          1 2G1      -0.116000
     22 F22         -3.8350     1.6440     2.5220 f          1 2G1      -0.116000
     23 H1           6.9750     2.0360    -1.7240 hc         1 2G1       0.060700
     24 H2           5.5970     2.1160    -2.8370 hc         1 2G1       0.060700
     25 H3           5.8580     3.4140    -1.6540 hc         1 2G1       0.060700
     26 H4           3.9200     0.2510     2.1640 h4         1 2G1       0.164000
     27 H5           2.0200    -0.8560     2.0380 ha         1 2G1       0.130500
     28 H6          -0.0960    -2.0830     1.8900 ha         1 2G1       0.135000
     29 H7          -0.2870    -1.2570    -2.3600 ha         1 2G1       0.135000
     30 H8           1.8370    -0.0270    -2.2170 ha         1 2G1       0.130500
     31 H9          -3.8600    -1.8820    -0.1890 hn         1 2G1       0.479000
     32 H10         -2.7630    -0.5970     1.5300 h1         1 2G1       0.066700
     33 H11         -1.8760     0.2750     0.2620 h1         1 2G1       0.066700
     34 H12         -4.0430     1.0430    -0.7270 hc         1 2G1       0.090200
     35 H13         -4.9260     0.2130     0.5530 hc         1 2G1       0.090200
@<TRIPOS>BOND
     1     1     2 1   
     2     1    23 1   
     3     1    24 1   
     4     1    25 1   
     5     2     3 2   
     6     2     6 1   
     7     3     4 1   
     8     4     5 2   
     9     4     7 1   
    10     5     6 1   
    11     5    26 1   
    12     7     8 ar  
    13     7    12 ar  
    14     8     9 ar  
    15     8    27 1   
    16     9    10 ar  
    17     9    28 1   
    18    10    11 ar  
    19    10    13 1   
    20    11    12 ar  
    21    11    29 1   
    22    12    30 1   
    23    13    14 2   
    24    13    15 2   
    25    13    16 1   
    26    16    17 1   
    27    16    31 1   
    28    17    18 1   
    29    17    32 1   
    30    17    33 1   
    31    18    19 1   
    32    18    34 1   
    33    18    35 1   
    34    19    20 1   
    35    19    21 1   
    36    19    22 1   
@<TRIPOS>SUBSTRUCTURE
     1 2G1         1 TEMP              0 ****  ****    0 ROOT
