@<TRIPOS>MOLECULE
2G1
   35    36     1     0     0
SMALL
bcc


@<TRIPOS>ATOM
      1 C01          6.0360     2.2830    -1.4680 c3         1 2G1      -0.128400
      2 C02          5.2420     1.4130    -0.5570 cc         1 2G1       0.444700
      3 N03          4.0760     0.9290    -0.8330 nd         1 2G1      -0.644000
      4 C04          3.5790     0.1620     0.1860 cd         1 2G1       0.394800
      5 C05          4.3990     0.0640     1.2730 cc         1 2G1      -0.194400
      6 S06          5.8280     0.9570     1.0040 ss         1 2G1      -0.158300
      7 C07          2.2610    -0.4640     0.0400 ca         1 2G1      -0.055500
      8 C08          1.7500    -1.3180     1.0210 ca         1 2G1      -0.129000
      9 C09          0.5060    -1.9010     0.8780 ca         1 2G1      -0.039000
     10 C10         -0.2450    -1.6340    -0.2610 ca         1 2G1      -0.314500
     11 C11          0.2410    -0.7920    -1.2500 ca         1 2G1      -0.039000
     12 C12          1.4900    -0.2130    -1.0960 ca         1 2G1      -0.129000
     13 S13         -1.8610    -2.3380    -0.4150 sy         1 2G1       1.295200
     14 O14         -2.2570    -2.2450    -1.8090 o          1 2G1      -0.598800
     15 O15         -1.8710    -3.6230     0.2630 o          1 2G1      -0.598800
     16 N16         -2.8820    -1.3700     0.4450 n7         1 2G1      -0.812100
     17 C17         -3.0040     0.0330     0.0670 c3         1 2G1       0.204800
     18 C18         -4.2720     0.5890     0.7020 c3         1 2G1      -0.156400
     19 C19         -4.4970     2.0410     0.3800 c3         1 2G1       0.664900
     20 F20         -4.6150     2.2570    -0.9400 f          1 2G1      -0.237300
     21 F21         -5.6170     2.5050     0.9510 f          1 2G1      -0.237300
     22 F22         -3.4930     2.8230     0.8050 f          1 2G1      -0.237300
     23 H1           6.9950     2.5560    -1.0340 hc         1 2G1       0.060700
     24 H2           6.2230     1.7700    -2.4110 hc         1 2G1       0.060700
     25 H3           5.4890     3.1990    -1.6890 hc         1 2G1       0.060700
     26 H4           4.2430    -0.4690     2.1970 h4         1 2G1       0.182000
     27 H5           2.3260    -1.5460     1.9080 ha         1 2G1       0.148500
     28 H6           0.1370    -2.5630     1.6510 ha         1 2G1       0.153000
     29 H7          -0.3350    -0.5860    -2.1420 ha         1 2G1       0.153000
     30 H8           1.8690     0.4390    -1.8710 ha         1 2G1       0.148500
     31 H9          -2.7820    -1.5180     1.4440 hn         1 2G1       0.423800
     32 H10         -2.1270     0.6080     0.3780 h1         1 2G1       0.066700
     33 H11         -3.0760     0.0920    -1.0180 h1         1 2G1       0.066700
     34 H12         -5.1370     0.0210     0.3550 hc         1 2G1       0.090200
     35 H13         -4.2290     0.4870     1.7890 hc         1 2G1       0.090200
@<TRIPOS>BOND
     1     1     2 1   
     2     1    23 1   
     3     1    24 1   
     4     1    25 1   
     5     2     3 2   
     6     2     6 1   
     7     3     4 1   
     8     4     5 2   
     9     4     7 1   
    10     5     6 1   
    11     5    26 1   
    12     7     8 ar  
    13     7    12 ar  
    14     8     9 ar  
    15     8    27 1   
    16     9    10 ar  
    17     9    28 1   
    18    10    11 ar  
    19    10    13 1   
    20    11    12 ar  
    21    11    29 1   
    22    12    30 1   
    23    13    14 2   
    24    13    15 2   
    25    13    16 1   
    26    16    17 1   
    27    16    31 1   
    28    17    18 1   
    29    17    32 1   
    30    17    33 1   
    31    18    19 1   
    32    18    34 1   
    33    18    35 1   
    34    19    20 1   
    35    19    21 1   
    36    19    22 1   
@<TRIPOS>SUBSTRUCTURE
     1 2G1         1 TEMP              0 ****  ****    0 ROOT
