@<TRIPOS>MOLECULE
2G3
   22    21     1     0     0
SMALL
No Charge or Current Charge


@<TRIPOS>ATOM
      1 N24          2.9450     0.3890    -0.1180 n8         1 2G3      -0.998200
      2 C25          1.6590    -0.3190     0.0320 c3         1 2G3       0.149800
      3 C26          0.4580     0.6420    -0.1530 c3         1 2G3      -0.070400
      4 C27         -0.9630     0.0040    -0.0170 c3         1 2G3      -0.045000
      5 C28         -1.1780    -1.1010    -1.0860 c3         1 2G3      -0.083433
      6 C30         -1.1630    -0.6020     1.3980 c3         1 2G3      -0.083433
      7 C29         -2.0240     1.1160    -0.2340 c3         1 2G3      -0.083433
      8 H12          3.0310     1.0850     0.6320 hn         1 2G3       0.390000
      9 H13          1.6200    -1.1210    -0.7170 h1         1 2G3       0.027200
     10 H14          1.6300    -0.7720     1.0320 h1         1 2G3       0.027200
     11 H15          0.5500     1.4560     0.5770 hc         1 2G3       0.045200
     12 H16          0.5410     1.1100    -1.1430 hc         1 2G3       0.045200
     13 H17         -0.5020    -1.9500    -0.9280 hc         1 2G3       0.032367
     14 H18         -2.2040    -1.4860    -1.0490 hc         1 2G3       0.032367
     15 H19         -1.0020    -0.7100    -2.0960 hc         1 2G3       0.032367
     16 H20         -0.9770     0.1490     2.1760 hc         1 2G3       0.032367
     17 H21         -2.1890    -0.9700     1.5230 hc         1 2G3       0.032367
     18 H22         -0.4880    -1.4480     1.5720 hc         1 2G3       0.032367
     19 H23         -1.9250     1.5650    -1.2300 hc         1 2G3       0.032367
     20 H24         -3.0410     0.7130    -0.1480 hc         1 2G3       0.032367
     21 H25         -1.9150     1.9150     0.5090 hc         1 2G3       0.032367
     22 H2           3.7120    -0.2680     0.0740 hn         1 2G3       0.390000
@<TRIPOS>BOND
     1     1     2 1   
     2     1     8 1   
     3     1    22 1   
     4     2     3 1   
     5     2     9 1   
     6     2    10 1   
     7     3     4 1   
     8     3    11 1   
     9     3    12 1   
    10     4     5 1   
    11     4     6 1   
    12     4     7 1   
    13     5    13 1   
    14     5    14 1   
    15     5    15 1   
    16     6    16 1   
    17     6    17 1   
    18     6    18 1   
    19     7    19 1   
    20     7    20 1   
    21     7    21 1   
@<TRIPOS>SUBSTRUCTURE
     1 2G3         1 TEMP              0 ****  ****    0 ROOT
