@<TRIPOS>MOLECULE
2G3
   22    21     1     0     0
SMALL
abcg2


@<TRIPOS>ATOM
      1 N24          2.8850     0.4180    -0.1290 n8         1 2G3      -0.998200
      2 C25          1.6360    -0.3200     0.0190 c3         1 2G3       0.149800
      3 C26          0.4510     0.6270    -0.1160 c3         1 2G3      -0.070400
      4 C27         -0.9480    -0.0010    -0.0000 c3         1 2G3      -0.045000
      5 C28         -1.1390    -1.0990    -1.0480 c3         1 2G3      -0.083433
      6 C30         -1.1780    -0.5790     1.3980 c3         1 2G3      -0.083433
      7 C29         -1.9810     1.1020    -0.2470 c3         1 2G3      -0.083433
      8 H12          2.9960     1.0460     0.6580 hn         1 2G3       0.390000
      9 H13          1.6000    -1.0730    -0.7720 h1         1 2G3       0.027200
     10 H14          1.5720    -0.8690     0.9690 h1         1 2G3       0.027200
     11 H15          0.5430     1.4110     0.6450 hc         1 2G3       0.045200
     12 H16          0.5290     1.1330    -1.0850 hc         1 2G3       0.045200
     13 H17         -0.4800    -1.9520    -0.8740 hc         1 2G3       0.032367
     14 H18         -2.1640    -1.4740    -1.0340 hc         1 2G3       0.032367
     15 H19         -0.9370    -0.7240    -2.0550 hc         1 2G3       0.032367
     16 H20         -1.0530     0.1880     2.1660 hc         1 2G3       0.032367
     17 H21         -2.1920    -0.9750     1.4900 hc         1 2G3       0.032367
     18 H22         -0.4880    -1.3930     1.6270 hc         1 2G3       0.032367
     19 H23         -1.8630     1.5400    -1.2410 hc         1 2G3       0.032367
     20 H24         -2.9980     0.7100    -0.1750 hc         1 2G3       0.032367
     21 H25         -1.8830     1.9060     0.4850 hc         1 2G3       0.032367
     22 H2           3.6650    -0.2240    -0.0730 hn         1 2G3       0.390000
@<TRIPOS>BOND
     1     1     2 1   
     2     1     8 1   
     3     1    22 1   
     4     2     3 1   
     5     2     9 1   
     6     2    10 1   
     7     3     4 1   
     8     3    11 1   
     9     3    12 1   
    10     4     5 1   
    11     4     6 1   
    12     4     7 1   
    13     5    13 1   
    14     5    14 1   
    15     5    15 1   
    16     6    16 1   
    17     6    17 1   
    18     6    18 1   
    19     7    19 1   
    20     7    20 1   
    21     7    21 1   
@<TRIPOS>SUBSTRUCTURE
     1 2G3         1 TEMP              0 ****  ****    0 ROOT
