@<TRIPOS>MOLECULE
2G6
   65    65     1     0     0
SMALL
No Charge or Current Charge


@<TRIPOS>ATOM
      1 C7           5.5090    -0.9520    -1.1900 c3         1 2G6       0.230900
      2 C6           6.8100    -1.0380    -0.4030 ca         1 2G6      -0.082300
      3 C1           6.9450    -1.9660     0.6490 ca         1 2G6      -0.085000
      4 C2           8.1480    -2.0470     1.3740 ca         1 2G6      -0.122500
      5 C3           9.2220    -1.2000     1.0520 ca         1 2G6      -0.113000
      6 C4           9.0920    -0.2710     0.0050 ca         1 2G6      -0.122500
      7 C5           7.8900    -0.1900    -0.7200 ca         1 2G6      -0.085000
      8 C9           3.4300     0.2280    -1.1050 c          1 2G6       0.636100
      9 O10          2.9960    -0.3100    -2.1130 o          1 2G6      -0.552000
     10 O8           4.6510     0.0060    -0.5480 os         1 2G6      -0.470100
     11 N11          2.7690     1.1740    -0.3630 ns         1 2G6      -0.445900
     12 C12          1.3830     1.6560    -0.6210 c3         1 2G6      -0.251000
     13 P13          0.0030     0.6600     0.1210 p5         1 2G6       1.346300
     14 O14          0.1090     0.4860     1.5960 o          1 2G6      -0.819500
     15 O15         -0.2650    -0.5910    -0.6350 o          1 2G6      -0.819500
     16 N16         -1.2310     1.6890    -0.1920 n7         1 2G6      -0.966500
     17 C17         -2.6140     1.4170     0.3040 c3         1 2G6       0.173500
     18 C22         -3.2520     0.0880    -0.2480 c          1 2G6       0.573100
     19 O23         -3.5220    -0.0770    -1.4330 o          1 2G6      -0.617100
     20 C18         -3.5320     2.6290    -0.0190 c3         1 2G6      -0.069400
     21 C19         -3.1350     3.9810     0.6440 c3         1 2G6      -0.054700
     22 C20         -4.0350     5.1290     0.1320 c3         1 2G6      -0.088600
     23 C21         -3.1540     3.9220     2.1910 c3         1 2G6      -0.088600
     24 N24         -3.5080    -0.8860     0.7000 ns         1 2G6      -0.513900
     25 C25         -4.1400    -2.1770     0.4190 c3         1 2G6       0.104000
     26 C26         -5.6790    -2.0530     0.2970 c3         1 2G6      -0.086400
     27 C27         -6.4570    -3.3770     0.0140 c3         1 2G6      -0.042000
     28 C28         -6.0070    -4.0030    -1.3340 c3         1 2G6      -0.083767
     29 C30         -6.2380    -4.4030     1.1590 c3         1 2G6      -0.083767
     30 C29         -7.9710    -3.0480    -0.0730 c3         1 2G6      -0.083767
     31 H29          5.7250    -0.6500    -2.2230 h1         1 2G6       0.050700
     32 H30          5.0330    -1.9410    -1.2200 h1         1 2G6       0.050700
     33 H31          6.1170    -2.6230     0.9070 ha         1 2G6       0.119500
     34 H32          8.2460    -2.7650     2.1850 ha         1 2G6       0.105000
     35 H33         10.1520    -1.2620     1.6120 ha         1 2G6       0.100000
     36 H34          9.9230     0.3860    -0.2440 ha         1 2G6       0.105000
     37 H35          7.7970     0.5340    -1.5270 ha         1 2G6       0.119500
     38 H36          3.2720     1.5140     0.4500 hn         1 2G6       0.314500
     39 H27          1.2830     2.6700    -0.2170 h1         1 2G6       0.057700
     40 H28          1.2060     1.6960    -1.7020 h1         1 2G6       0.057700
     41 H1          -1.2500     1.5680    -1.2020 hn         1 2G6       0.453000
     42 H2          -2.5930     1.3070     1.3960 h1         1 2G6       0.085700
     43 H3          -3.5640     2.7630    -1.1070 hc         1 2G6       0.029200
     44 H4          -4.5560     2.3800     0.2880 hc         1 2G6       0.029200
     45 H5          -2.1090     4.2210     0.3380 hc         1 2G6       0.067700
     46 H6          -5.0820     4.9590     0.4090 hc         1 2G6       0.027367
     47 H7          -3.7190     6.0900     0.5580 hc         1 2G6       0.027367
     48 H8          -3.9770     5.2110    -0.9600 hc         1 2G6       0.027367
     49 H9          -4.1410     3.6170     2.5590 hc         1 2G6       0.027367
     50 H10         -2.4090     3.2140     2.5700 hc         1 2G6       0.027367
     51 H11         -2.9190     4.9040     2.6180 hc         1 2G6       0.027367
     52 H12         -3.2370    -0.6830     1.6550 hn         1 2G6       0.312500
     53 H13         -3.7170    -2.5810    -0.5100 h1         1 2G6       0.048700
     54 H14         -3.8840    -2.8640     1.2360 h1         1 2G6       0.048700
     55 H15         -6.0600    -1.6090     1.2260 hc         1 2G6       0.039700
     56 H16         -5.9060    -1.3330    -0.4990 hc         1 2G6       0.039700
     57 H23         -4.9610    -4.3280    -1.2960 hc         1 2G6       0.031367
     58 H24         -6.6160    -4.8820    -1.5780 hc         1 2G6       0.031367
     59 H25         -6.1100    -3.2830    -2.1550 hc         1 2G6       0.031367
     60 H20         -6.5060    -3.9700     2.1300 hc         1 2G6       0.031367
     61 H21         -6.8560    -5.2960     1.0050 hc         1 2G6       0.031367
     62 H22         -5.1930    -4.7310     1.2090 hc         1 2G6       0.031367
     63 H17         -8.1710    -2.3310    -0.8800 hc         1 2G6       0.031367
     64 H18         -8.5600    -3.9520    -0.2720 hc         1 2G6       0.031367
     65 H19         -8.3330    -2.6110     0.8650 hc         1 2G6       0.031367
@<TRIPOS>BOND
     1     1     2 1   
     2     1    10 1   
     3     1    31 1   
     4     1    32 1   
     5     2     3 ar  
     6     2     7 ar  
     7     3     4 ar  
     8     3    33 1   
     9     4     5 ar  
    10     4    34 1   
    11     5     6 ar  
    12     5    35 1   
    13     6     7 ar  
    14     6    36 1   
    15     7    37 1   
    16     8     9 2   
    17     8    10 1   
    18     8    11 1   
    19    11    12 1   
    20    11    38 1   
    21    12    13 1   
    22    12    39 1   
    23    12    40 1   
    24    13    14 1   
    25    13    15 1   
    26    13    16 1   
    27    16    17 1   
    28    16    41 1   
    29    17    18 1   
    30    17    20 1   
    31    17    42 1   
    32    18    19 2   
    33    18    24 1   
    34    20    21 1   
    35    20    43 1   
    36    20    44 1   
    37    21    22 1   
    38    21    23 1   
    39    21    45 1   
    40    22    46 1   
    41    22    47 1   
    42    22    48 1   
    43    23    49 1   
    44    23    50 1   
    45    23    51 1   
    46    24    25 1   
    47    24    52 1   
    48    25    26 1   
    49    25    53 1   
    50    25    54 1   
    51    26    27 1   
    52    26    55 1   
    53    26    56 1   
    54    27    28 1   
    55    27    29 1   
    56    27    30 1   
    57    28    57 1   
    58    28    58 1   
    59    28    59 1   
    60    29    60 1   
    61    29    61 1   
    62    29    62 1   
    63    30    63 1   
    64    30    64 1   
    65    30    65 1   
@<TRIPOS>SUBSTRUCTURE
     1 2G6         1 TEMP              0 ****  ****    0 ROOT
