@<TRIPOS>MOLECULE
2G6
   65    65     1     0     0
SMALL
abcg2


@<TRIPOS>ATOM
      1 C7           5.8190     0.2400    -1.1050 c3         1 2G6       0.230900
      2 C6           6.7790    -0.4680    -0.1980 ca         1 2G6      -0.082300
      3 C1           6.5820    -1.8080     0.1270 ca         1 2G6      -0.085000
      4 C2           7.4500    -2.4580     0.9930 ca         1 2G6      -0.122500
      5 C3           8.5260    -1.7740     1.5450 ca         1 2G6      -0.113000
      6 C4           8.7300    -0.4380     1.2250 ca         1 2G6      -0.122500
      7 C5           7.8590     0.2100     0.3590 ca         1 2G6      -0.085000
      8 C9           3.7060     1.2820    -0.9150 c          1 2G6       0.636100
      9 O10          3.6480     1.4180    -2.1210 o          1 2G6      -0.552000
     10 O8           4.7410     0.7030    -0.2860 os         1 2G6      -0.470100
     11 N11          2.7950     1.7200    -0.0290 ns         1 2G6      -0.445900
     12 C12          1.4390     2.0390    -0.4300 c3         1 2G6      -0.251000
     13 P13          0.3680     0.5380    -0.3270 p5         1 2G6       1.346300
     14 O14          0.1180     0.2390     1.1340 o          1 2G6      -0.819500
     15 O15          0.9960    -0.5110    -1.2120 o          1 2G6      -0.819500
     16 N16         -1.0820     1.1280    -1.0030 n7         1 2G6      -0.966500
     17 C17         -2.3560     0.9700    -0.3540 c3         1 2G6       0.173500
     18 C22         -3.1060    -0.2550    -0.8760 c          1 2G6       0.573100
     19 O23         -3.0370    -0.6060    -2.0470 o          1 2G6      -0.617100
     20 C18         -3.2480     2.2050    -0.5350 c3         1 2G6      -0.069400
     21 C19         -2.6560     3.4950     0.0290 c3         1 2G6      -0.054700
     22 C20         -3.6070     4.6580    -0.2380 c3         1 2G6      -0.088600
     23 C21         -2.3480     3.3830     1.5190 c3         1 2G6      -0.088600
     24 N24         -3.8750    -0.8780     0.0290 ns         1 2G6      -0.513900
     25 C25         -4.6960    -2.0350    -0.2640 c3         1 2G6       0.104000
     26 C26         -5.8350    -2.1390     0.7410 c3         1 2G6      -0.086400
     27 C27         -6.7430    -3.3690     0.5870 c3         1 2G6      -0.042000
     28 C28         -7.3780    -3.4020    -0.8050 c3         1 2G6      -0.083767
     29 C30         -5.9570    -4.6610     0.8240 c3         1 2G6      -0.083767
     30 C29         -7.8480    -3.2690     1.6390 c3         1 2G6      -0.083767
     31 H29          6.3050     1.0820    -1.6030 h1         1 2G6       0.050700
     32 H30          5.4430    -0.4360    -1.8750 h1         1 2G6       0.050700
     33 H31          5.7480    -2.3490    -0.3030 ha         1 2G6       0.119500
     34 H32          7.2870    -3.5010     1.2370 ha         1 2G6       0.105000
     35 H33          9.2040    -2.2810     2.2180 ha         1 2G6       0.100000
     36 H34          9.5680     0.1000     1.6490 ha         1 2G6       0.105000
     37 H35          8.0250     1.2510     0.1090 ha         1 2G6       0.119500
     38 H36          2.9220     1.4450     0.9330 hn         1 2G6       0.314500
     39 H27          1.0520     2.8300     0.2150 h1         1 2G6       0.057700
     40 H28          1.4540     2.4370    -1.4440 h1         1 2G6       0.057700
     41 H1          -1.1460     1.0500    -2.0100 hn         1 2G6       0.453000
     42 H2          -2.1640     0.8260     0.7100 h1         1 2G6       0.085700
     43 H3          -3.4550     2.3380    -1.6030 hc         1 2G6       0.029200
     44 H4          -4.2170     2.0190    -0.0560 hc         1 2G6       0.029200
     45 H5          -1.7160     3.6940    -0.4970 hc         1 2G6       0.067700
     46 H6          -4.5720     4.4950     0.2480 hc         1 2G6       0.027367
     47 H7          -3.2010     5.5970     0.1430 hc         1 2G6       0.027367
     48 H8          -3.7930     4.7880    -1.3060 hc         1 2G6       0.027367
     49 H9          -3.2410     3.1040     2.0840 hc         1 2G6       0.027367
     50 H10         -1.5780     2.6390     1.7240 hc         1 2G6       0.027367
     51 H11         -1.9930     4.3370     1.9150 hc         1 2G6       0.027367
     52 H12         -3.8200    -0.5790     0.9900 hn         1 2G6       0.312500
     53 H13         -5.0850    -1.9330    -1.2770 h1         1 2G6       0.048700
     54 H14         -4.0820    -2.9410    -0.2470 h1         1 2G6       0.048700
     55 H15         -5.4170    -2.1430     1.7550 hc         1 2G6       0.039700
     56 H16         -6.4490    -1.2350     0.6670 hc         1 2G6       0.039700
     57 H23         -6.6350    -3.5480    -1.5910 hc         1 2G6       0.031367
     58 H24         -8.0970    -4.2210    -0.8840 hc         1 2G6       0.031367
     59 H25         -7.9110    -2.4730    -1.0200 hc         1 2G6       0.031367
     60 H20         -5.4710    -4.6530     1.8020 hc         1 2G6       0.031367
     61 H21         -6.6220    -5.5270     0.7950 hc         1 2G6       0.031367
     62 H22         -5.1850    -4.8200     0.0700 hc         1 2G6       0.031367
     63 H17         -8.4490    -2.3670     1.5040 hc         1 2G6       0.031367
     64 H18         -8.5190    -4.1280     1.5790 hc         1 2G6       0.031367
     65 H19         -7.4310    -3.2420     2.6480 hc         1 2G6       0.031367
@<TRIPOS>BOND
     1     1     2 1   
     2     1    10 1   
     3     1    31 1   
     4     1    32 1   
     5     2     3 ar  
     6     2     7 ar  
     7     3     4 ar  
     8     3    33 1   
     9     4     5 ar  
    10     4    34 1   
    11     5     6 ar  
    12     5    35 1   
    13     6     7 ar  
    14     6    36 1   
    15     7    37 1   
    16     8     9 2   
    17     8    10 1   
    18     8    11 1   
    19    11    12 1   
    20    11    38 1   
    21    12    13 1   
    22    12    39 1   
    23    12    40 1   
    24    13    14 1   
    25    13    15 1   
    26    13    16 1   
    27    16    17 1   
    28    16    41 1   
    29    17    18 1   
    30    17    20 1   
    31    17    42 1   
    32    18    19 2   
    33    18    24 1   
    34    20    21 1   
    35    20    43 1   
    36    20    44 1   
    37    21    22 1   
    38    21    23 1   
    39    21    45 1   
    40    22    46 1   
    41    22    47 1   
    42    22    48 1   
    43    23    49 1   
    44    23    50 1   
    45    23    51 1   
    46    24    25 1   
    47    24    52 1   
    48    25    26 1   
    49    25    53 1   
    50    25    54 1   
    51    26    27 1   
    52    26    55 1   
    53    26    56 1   
    54    27    28 1   
    55    27    29 1   
    56    27    30 1   
    57    28    57 1   
    58    28    58 1   
    59    28    59 1   
    60    29    60 1   
    61    29    61 1   
    62    29    62 1   
    63    30    63 1   
    64    30    64 1   
    65    30    65 1   
@<TRIPOS>SUBSTRUCTURE
     1 2G6         1 TEMP              0 ****  ****    0 ROOT
