@<TRIPOS>MOLECULE
2G7
   59    59     1     0     0
SMALL
abcg2


@<TRIPOS>ATOM
      1 C7          -2.4910     0.9110     0.9330 c3         1 2G7       0.231900
      2 C6          -3.9710     0.9320     1.1680 ca         1 2G7      -0.082300
      3 C1          -4.7450     1.9790     0.6720 ca         1 2G7      -0.084500
      4 C2          -6.1170     1.9960     0.8700 ca         1 2G7      -0.121000
      5 C3          -6.7330     0.9650     1.5710 ca         1 2G7      -0.112000
      6 C4          -5.9690    -0.0810     2.0700 ca         1 2G7      -0.121000
      7 C5          -4.5950    -0.0970     1.8650 ca         1 2G7      -0.084500
      8 C9          -1.0290     0.4840    -0.8740 c          1 2G7       0.652100
      9 O10         -0.0680     0.6850    -0.1500 o          1 2G7      -0.604000
     10 O8          -2.2920     0.5500    -0.4370 os         1 2G7      -0.456100
     11 N11         -0.9830     0.2380    -2.1920 ns         1 2G7      -0.421900
     12 C12          0.2230    -0.2480    -2.8260 c3         1 2G7      -0.277000
     13 P13          0.5140    -2.0780    -2.5320 p5         1 2G7       1.343300
     14 O14         -0.4000    -2.4730    -1.4000 o          1 2G7      -0.810000
     15 O15          0.4590    -2.7800    -3.8660 o          1 2G7      -0.810000
     16 N16          2.1160    -2.2270    -1.9780 n7         1 2G7      -0.966500
     17 C17          2.5270    -1.7180    -0.6830 c3         1 2G7       0.174500
     18 C22          3.4420    -0.5100    -0.8720 c          1 2G7       0.569100
     19 O23          4.5810    -0.6460    -1.3070 o          1 2G7      -0.648100
     20 C18          3.2260    -2.7970     0.1410 c3         1 2G7      -0.070400
     21 C19          3.6850    -2.3670     1.5350 c3         1 2G7      -0.063700
     22 C20          2.5380    -1.8140     2.3770 c3         1 2G7      -0.085100
     23 C21          4.3570    -3.5400     2.2430 c3         1 2G7      -0.085100
     24 C28          4.7160     1.7350     1.5610 c3         1 2G7      -0.083600
     25 C26          3.8510     2.6130     0.6660 c3         1 2G7      -0.081700
     26 C29          4.5000     3.9720     0.4320 c3         1 2G7      -0.083600
     27 C25          3.5700     1.9460    -0.6810 c3         1 2G7       0.104000
     28 N24          2.8980     0.6740    -0.5580 ns         1 2G7      -0.511900
     29 H25         -2.0540     1.8920     1.1310 h1         1 2G7       0.051200
     30 H26         -2.0050     0.1870     1.5910 h1         1 2G7       0.051200
     31 H27         -4.2700     2.7900     0.1330 ha         1 2G7       0.118000
     32 H28         -6.7080     2.8160     0.4810 ha         1 2G7       0.105500
     33 H29         -7.8030     0.9800     1.7300 ha         1 2G7       0.102000
     34 H30         -6.4410    -0.8860     2.6160 ha         1 2G7       0.105500
     35 H31         -4.0040    -0.9160     2.2570 ha         1 2G7       0.118000
     36 H32         -1.8520    -0.0280    -2.6270 hn         1 2G7       0.312500
     37 H23          0.1310    -0.0660    -3.8970 h1         1 2G7       0.056700
     38 H24          1.0710     0.3450    -2.4860 h1         1 2G7       0.056700
     39 H1           2.8460    -2.2280    -2.6760 hn         1 2G7       0.452000
     40 H2           1.6210    -1.4120    -0.1540 h1         1 2G7       0.080700
     41 H3           2.5250    -3.6320     0.2360 hc         1 2G7       0.053200
     42 H4           4.0850    -3.1720    -0.4250 hc         1 2G7       0.053200
     43 H5           4.4370    -1.5760     1.4230 hc         1 2G7       0.043700
     44 H6           2.8730    -1.5880     3.3910 hc         1 2G7       0.026867
     45 H7           2.1270    -0.8920     1.9640 hc         1 2G7       0.026867
     46 H8           1.7200    -2.5360     2.4490 hc         1 2G7       0.026867
     47 H9           5.2040    -3.9170     1.6670 hc         1 2G7       0.026867
     48 H10          4.7270    -3.2520     3.2280 hc         1 2G7       0.026867
     49 H11          3.6550    -4.3670     2.3790 hc         1 2G7       0.026867
     50 H19          4.2260     0.7900     1.7980 hc         1 2G7       0.029367
     51 H20          5.6680     1.5040     1.0790 hc         1 2G7       0.029367
     52 H21          4.9330     2.2370     2.5060 hc         1 2G7       0.029367
     53 H15          2.8890     2.7760     1.1680 hc         1 2G7       0.048700
     54 H16          5.4700     3.8640    -0.0600 hc         1 2G7       0.029367
     55 H17          3.8780     4.6120    -0.1970 hc         1 2G7       0.029367
     56 H18          4.6680     4.4960     1.3740 hc         1 2G7       0.029367
     57 H13          2.9550     2.6110    -1.2940 h1         1 2G7       0.045700
     58 H14          4.5070     1.7910    -1.2180 h1         1 2G7       0.045700
     59 H12          1.9190     0.6890    -0.2940 hn         1 2G7       0.354500
@<TRIPOS>BOND
     1     1     2 1   
     2     1    10 1   
     3     1    29 1   
     4     1    30 1   
     5     2     3 ar  
     6     2     7 ar  
     7     3     4 ar  
     8     3    31 1   
     9     4     5 ar  
    10     4    32 1   
    11     5     6 ar  
    12     5    33 1   
    13     6     7 ar  
    14     6    34 1   
    15     7    35 1   
    16     8     9 2   
    17     8    10 1   
    18     8    11 1   
    19    11    12 1   
    20    11    36 1   
    21    12    13 1   
    22    12    37 1   
    23    12    38 1   
    24    13    14 1   
    25    13    15 1   
    26    13    16 1   
    27    16    17 1   
    28    16    39 1   
    29    17    18 1   
    30    17    20 1   
    31    17    40 1   
    32    18    19 2   
    33    18    28 1   
    34    20    21 1   
    35    20    41 1   
    36    20    42 1   
    37    21    22 1   
    38    21    23 1   
    39    21    43 1   
    40    22    44 1   
    41    22    45 1   
    42    22    46 1   
    43    23    47 1   
    44    23    48 1   
    45    23    49 1   
    46    24    25 1   
    47    24    50 1   
    48    24    51 1   
    49    24    52 1   
    50    25    26 1   
    51    25    27 1   
    52    25    53 1   
    53    26    54 1   
    54    26    55 1   
    55    26    56 1   
    56    27    28 1   
    57    27    57 1   
    58    27    58 1   
    59    28    59 1   
@<TRIPOS>SUBSTRUCTURE
     1 2G7         1 TEMP              0 ****  ****    0 ROOT
