@<TRIPOS>MOLECULE
2G7
   59    59     1     0     0
SMALL
No Charge or Current Charge


@<TRIPOS>ATOM
      1 C7          -2.5820     0.7230     1.0130 c3         1 2G7       0.231900
      2 C6          -4.0110     1.2440     1.0920 ca         1 2G7      -0.082300
      3 C1          -4.2780     2.6180     0.9240 ca         1 2G7      -0.084500
      4 C2          -5.5970     3.0990     0.9990 ca         1 2G7      -0.121000
      5 C3          -6.6570     2.2090     1.2420 ca         1 2G7      -0.112000
      6 C4          -6.3980     0.8390     1.4080 ca         1 2G7      -0.121000
      7 C5          -5.0800     0.3570     1.3330 ca         1 2G7      -0.084500
      8 C9          -1.0560    -0.1000    -0.6290 c          1 2G7       0.652100
      9 O10         -0.1530    -0.2430     0.1820 o          1 2G7      -0.604000
     10 O8          -2.2960     0.3840    -0.3530 os         1 2G7      -0.456100
     11 N11         -0.9580    -0.3300    -1.9810 ns         1 2G7      -0.421900
     12 C12          0.2300    -0.8900    -2.6870 c3         1 2G7      -0.277000
     13 P13          0.5830    -2.7020    -2.4400 p5         1 2G7       1.343300
     14 O14         -0.2560    -3.2960    -1.3620 o          1 2G7      -0.810000
     15 O15          0.5610    -3.4250    -3.7400 o          1 2G7      -0.810000
     16 N16          2.1470    -2.6730    -1.9360 n7         1 2G7      -0.966500
     17 C17          2.6450    -1.9970    -0.7000 c3         1 2G7       0.174500
     18 C22          3.2140    -0.5500    -0.9500 c          1 2G7       0.569100
     19 O23          4.2060    -0.3390    -1.6400 o          1 2G7      -0.648100
     20 C18          3.7060    -2.9180    -0.0390 c3         1 2G7      -0.070400
     21 C19          4.3330    -2.3900     1.2840 c3         1 2G7      -0.063700
     22 C20          3.2800    -2.1150     2.3850 c3         1 2G7      -0.085100
     23 C21          5.4230    -3.3570     1.8000 c3         1 2G7      -0.085100
     24 C28          4.4260     1.8320     1.5980 c3         1 2G7      -0.083600
     25 C26          3.2010     2.5110     0.9400 c3         1 2G7      -0.081700
     26 C29          3.4040     4.0390     0.8310 c3         1 2G7      -0.083600
     27 C25          2.8510     1.9010    -0.4390 c3         1 2G7       0.104000
     28 N24          2.5120     0.4780    -0.3560 ns         1 2G7      -0.511900
     29 H25         -1.8900     1.4960     1.3740 h1         1 2G7       0.051200
     30 H26         -2.4750    -0.1560     1.6630 h1         1 2G7       0.051200
     31 H27         -3.4620     3.3130     0.7340 ha         1 2G7       0.118000
     32 H28         -5.7960     4.1600     0.8690 ha         1 2G7       0.105500
     33 H29         -7.6780     2.5820     1.2990 ha         1 2G7       0.102000
     34 H30         -7.2190     0.1490     1.5940 ha         1 2G7       0.105500
     35 H31         -4.8870    -0.7070     1.4600 ha         1 2G7       0.118000
     36 H32         -1.8050    -0.1450    -2.5060 hn         1 2G7       0.312500
     37 H23          0.0660    -0.7790    -3.7650 h1         1 2G7       0.056700
     38 H24          1.1120    -0.2980    -2.4330 h1         1 2G7       0.056700
     39 H1           2.6640    -2.3510    -2.7500 hn         1 2G7       0.452000
     40 H2           1.8190    -1.9040     0.0170 h1         1 2G7       0.080700
     41 H3           3.2480    -3.8950     0.1550 hc         1 2G7       0.053200
     42 H4           4.5130    -3.0940    -0.7610 hc         1 2G7       0.053200
     43 H5           4.8390    -1.4420     1.0660 hc         1 2G7       0.043700
     44 H6           3.7670    -1.7850     3.3100 hc         1 2G7       0.026867
     45 H7           2.5840    -1.3240     2.0820 hc         1 2G7       0.026867
     46 H8           2.7010    -3.0190     2.6060 hc         1 2G7       0.026867
     47 H9           6.1990    -3.5090     1.0410 hc         1 2G7       0.026867
     48 H10          5.9050    -2.9550     2.6990 hc         1 2G7       0.026867
     49 H11          4.9920    -4.3340     2.0510 hc         1 2G7       0.026867
     50 H19          4.2280     0.7730     1.7930 hc         1 2G7       0.029367
     51 H20          5.3090     1.9070     0.9520 hc         1 2G7       0.029367
     52 H21          4.6620     2.3070     2.5580 hc         1 2G7       0.029367
     53 H15          2.3410     2.3470     1.6010 hc         1 2G7       0.048700
     54 H16          4.2560     4.2750     0.1830 hc         1 2G7       0.029367
     55 H17          2.5110     4.5200     0.4140 hc         1 2G7       0.029367
     56 H18          3.5920     4.4770     1.8190 hc         1 2G7       0.029367
     57 H13          1.9830     2.4280    -0.8570 h1         1 2G7       0.045700
     58 H14          3.6920     2.0500    -1.1290 h1         1 2G7       0.045700
     59 H12          1.6400     0.2210     0.1040 hn         1 2G7       0.354500
@<TRIPOS>BOND
     1     1     2 1   
     2     1    10 1   
     3     1    29 1   
     4     1    30 1   
     5     2     3 ar  
     6     2     7 ar  
     7     3     4 ar  
     8     3    31 1   
     9     4     5 ar  
    10     4    32 1   
    11     5     6 ar  
    12     5    33 1   
    13     6     7 ar  
    14     6    34 1   
    15     7    35 1   
    16     8     9 2   
    17     8    10 1   
    18     8    11 1   
    19    11    12 1   
    20    11    36 1   
    21    12    13 1   
    22    12    37 1   
    23    12    38 1   
    24    13    14 1   
    25    13    15 1   
    26    13    16 1   
    27    16    17 1   
    28    16    39 1   
    29    17    18 1   
    30    17    20 1   
    31    17    40 1   
    32    18    19 2   
    33    18    28 1   
    34    20    21 1   
    35    20    41 1   
    36    20    42 1   
    37    21    22 1   
    38    21    23 1   
    39    21    43 1   
    40    22    44 1   
    41    22    45 1   
    42    22    46 1   
    43    23    47 1   
    44    23    48 1   
    45    23    49 1   
    46    24    25 1   
    47    24    50 1   
    48    24    51 1   
    49    24    52 1   
    50    25    26 1   
    51    25    27 1   
    52    25    53 1   
    53    26    54 1   
    54    26    55 1   
    55    26    56 1   
    56    27    28 1   
    57    27    57 1   
    58    27    58 1   
    59    28    59 1   
@<TRIPOS>SUBSTRUCTURE
     1 2G7         1 TEMP              0 ****  ****    0 ROOT
