@<TRIPOS>MOLECULE
2G8
   56    56     1     0     0
SMALL
No Charge or Current Charge


@<TRIPOS>ATOM
      1 C7          -2.6970     0.5930     1.0010 c3         1 2G8       0.232900
      2 C6          -4.1630     1.0020     1.0510 ca         1 2G8      -0.084300
      3 C1          -4.5260     2.3610     0.9600 ca         1 2G8      -0.083500
      4 C2          -5.8790     2.7390     1.0080 ca         1 2G8      -0.122500
      5 C3          -6.8780     1.7600     1.1470 ca         1 2G8      -0.111000
      6 C4          -6.5230     0.4040     1.2360 ca         1 2G8      -0.122500
      7 C5          -5.1700     0.0250     1.1880 ca         1 2G8      -0.083500
      8 C9          -1.0520    -0.0100    -0.6220 c          1 2G8       0.652100
      9 O10         -0.1730    -0.1430     0.2160 o          1 2G8      -0.605000
     10 O8          -2.3340     0.3660    -0.3700 os         1 2G8      -0.456100
     11 N11         -0.8880    -0.1470    -1.9800 ns         1 2G8      -0.420900
     12 C12          0.3620    -0.5820    -2.6670 c3         1 2G8      -0.279000
     13 P13          0.8030    -2.3880    -2.5430 p5         1 2G8       1.344300
     14 O14         -0.0520    -3.1070    -1.5580 o          1 2G8      -0.810500
     15 O15          0.8820    -3.0070    -3.8940 o          1 2G8      -0.810500
     16 N16          2.3370    -2.3180    -1.9580 n7         1 2G8      -0.965500
     17 C17          2.7290    -1.7040    -0.6550 c3         1 2G8       0.174500
     18 C22          3.2350    -0.2190    -0.7770 c          1 2G8       0.565100
     19 O23          4.2180     0.0940    -1.4410 o          1 2G8      -0.646100
     20 C18          3.8070    -2.6040     0.0080 c3         1 2G8      -0.071400
     21 C19          4.3200    -2.1290     1.4000 c3         1 2G8      -0.062700
     22 C20          3.1910    -2.0170     2.4520 c3         1 2G8      -0.085100
     23 C21          5.4530    -3.0480     1.9100 c3         1 2G8      -0.085100
     24 C29          4.2700     3.9130     1.1580 c3         1 2G8      -0.085100
     25 C26          3.9310     2.4160     1.0220 c3         1 2G8      -0.099400
     26 C25          2.8170     2.1450    -0.0100 c3         1 2G8       0.108000
     27 N24          2.4920     0.7230    -0.1000 ns         1 2G8      -0.512900
     28 H23         -2.0790     1.3890     1.4400 h1         1 2G8       0.050200
     29 H24         -2.5490    -0.3170     1.5980 h1         1 2G8       0.050200
     30 H25         -3.7580     3.1250     0.8500 ha         1 2G8       0.119000
     31 H26         -6.1530     3.7890     0.9370 ha         1 2G8       0.105500
     32 H27         -7.9250     2.0530     1.1840 ha         1 2G8       0.102000
     33 H28         -7.2960    -0.3540     1.3420 ha         1 2G8       0.105500
     34 H29         -4.9030    -1.0270     1.2560 ha         1 2G8       0.119000
     35 H30         -1.7250     0.0130    -2.5280 hn         1 2G8       0.312500
     36 H21          0.2430    -0.3920    -3.7400 h1         1 2G8       0.056700
     37 H22          1.1960     0.0330    -2.3220 h1         1 2G8       0.056700
     38 H1           2.8710    -1.9030    -2.7180 hn         1 2G8       0.452000
     39 H2           1.8620    -1.7030     0.0180 h1         1 2G8       0.079700
     40 H3           3.4020    -3.6190     0.1090 hc         1 2G8       0.053200
     41 H4           4.6640    -2.6800    -0.6740 hc         1 2G8       0.053200
     42 H5           4.7560    -1.1300     1.2810 hc         1 2G8       0.043700
     43 H6           3.6000    -1.7270     3.4280 hc         1 2G8       0.026700
     44 H7           2.4540    -1.2570     2.1680 hc         1 2G8       0.026700
     45 H8           2.6710    -2.9760     2.5710 hc         1 2G8       0.026700
     46 H9           6.2790    -3.0820     1.1900 hc         1 2G8       0.026700
     47 H10          5.8530    -2.6790     2.8620 hc         1 2G8       0.026700
     48 H11          5.0890    -4.0710     2.0630 hc         1 2G8       0.026700
     49 H17          3.3900     4.4820     1.4810 hc         1 2G8       0.024700
     50 H18          5.0640     4.0580     1.9010 hc         1 2G8       0.024700
     51 H19          4.6160     4.3210     0.2010 hc         1 2G8       0.024700
     52 H15          4.8370     1.8700     0.7340 hc         1 2G8       0.046700
     53 H16          3.6200     2.0290     2.0000 hc         1 2G8       0.046700
     54 H13          1.9090     2.6890     0.2810 h1         1 2G8       0.041200
     55 H14          3.1280     2.5070    -0.9990 h1         1 2G8       0.041200
     56 H12          1.6190     0.4000     0.3150 hn         1 2G8       0.355500
@<TRIPOS>BOND
     1     1     2 1   
     2     1    10 1   
     3     1    28 1   
     4     1    29 1   
     5     2     3 ar  
     6     2     7 ar  
     7     3     4 ar  
     8     3    30 1   
     9     4     5 ar  
    10     4    31 1   
    11     5     6 ar  
    12     5    32 1   
    13     6     7 ar  
    14     6    33 1   
    15     7    34 1   
    16     8     9 2   
    17     8    10 1   
    18     8    11 1   
    19    11    12 1   
    20    11    35 1   
    21    12    13 1   
    22    12    36 1   
    23    12    37 1   
    24    13    14 1   
    25    13    15 1   
    26    13    16 1   
    27    16    17 1   
    28    16    38 1   
    29    17    18 1   
    30    17    20 1   
    31    17    39 1   
    32    18    19 2   
    33    18    27 1   
    34    20    21 1   
    35    20    40 1   
    36    20    41 1   
    37    21    22 1   
    38    21    23 1   
    39    21    42 1   
    40    22    43 1   
    41    22    44 1   
    42    22    45 1   
    43    23    46 1   
    44    23    47 1   
    45    23    48 1   
    46    24    25 1   
    47    24    49 1   
    48    24    50 1   
    49    24    51 1   
    50    25    26 1   
    51    25    52 1   
    52    25    53 1   
    53    26    27 1   
    54    26    54 1   
    55    26    55 1   
    56    27    56 1   
@<TRIPOS>SUBSTRUCTURE
     1 2G8         1 TEMP              0 ****  ****    0 ROOT
