@<TRIPOS>MOLECULE
2G8
   56    56     1     0     0
SMALL
bcc


@<TRIPOS>ATOM
      1 C7          -2.5630     0.8990     0.9530 c3         1 2G8       0.209700
      2 C6          -4.0450     0.7560     1.1280 ca         1 2G8      -0.084300
      3 C1          -4.8960     1.8170     0.8310 ca         1 2G8      -0.101500
      4 C2          -6.2710     1.6750     0.9590 ca         1 2G8      -0.140500
      5 C3          -6.8090     0.4680     1.3870 ca         1 2G8      -0.129000
      6 C4          -5.9670    -0.5950     1.6880 ca         1 2G8      -0.140500
      7 C5          -4.5920    -0.4500     1.5560 ca         1 2G8      -0.101500
      8 C9          -1.0030     0.6590    -0.8060 c          1 2G8       0.768100
      9 O10         -0.0840     0.8340    -0.0230 o          1 2G8      -0.654000
     10 O8          -2.2870     0.6560    -0.4300 os         1 2G8      -0.432900
     11 N11         -0.8860     0.5110    -2.1350 ns         1 2G8      -0.487900
     12 C12          0.3610     0.0910    -2.7360 c3         1 2G8      -0.121200
     13 P13          0.6670    -1.7510    -2.5560 p5         1 2G8       1.186500
     14 O14         -0.2900    -2.2320    -1.4960 o          1 2G8      -0.810000
     15 O15          0.6810    -2.3610    -3.9350 o          1 2G8      -0.810000
     16 N16          2.2460    -1.9170    -1.9430 n7         1 2G8      -0.910300
     17 C17          2.5960    -1.4620    -0.6110 c3         1 2G8       0.174500
     18 C22          3.4940    -0.2300    -0.7080 c          1 2G8       0.632100
     19 O23          4.6410    -0.3150    -1.1330 o          1 2G8      -0.646100
     20 C18          3.2880    -2.5610     0.1910 c3         1 2G8      -0.071400
     21 C19          3.6850    -2.1820     1.6190 c3         1 2G8      -0.062700
     22 C20          2.4920    -1.6970     2.4390 c3         1 2G8      -0.085100
     23 C21          4.3580    -3.3690     2.3000 c3         1 2G8      -0.085100
     24 C29          5.1900     3.8030     0.7810 c3         1 2G8      -0.085100
     25 C26          4.4850     2.4560     0.8620 c3         1 2G8      -0.099400
     26 C25          3.6270     2.1950    -0.3710 c3         1 2G8       0.108000
     27 N24          2.9360     0.9260    -0.3270 ns         1 2G8      -0.579900
     28 H23         -2.2340     1.9020     1.2310 h1         1 2G8       0.050200
     29 H24         -2.0290     0.1810     1.5780 h1         1 2G8       0.050200
     30 H25         -4.4820     2.7620     0.5000 ha         1 2G8       0.137000
     31 H26         -6.9230     2.5080     0.7270 ha         1 2G8       0.123500
     32 H27         -7.8800     0.3570     1.4900 ha         1 2G8       0.120000
     33 H28         -6.3800    -1.5360     2.0260 ha         1 2G8       0.123500
     34 H29         -3.9390    -1.2810     1.7940 ha         1 2G8       0.137000
     35 H30         -1.7250     0.2510    -2.6290 hn         1 2G8       0.312500
     36 H21          0.3260     0.3500    -3.7940 h1         1 2G8       0.056700
     37 H22          1.1780     0.6690    -2.3050 h1         1 2G8       0.056700
     38 H1           3.0050    -1.8740    -2.6090 hn         1 2G8       0.396800
     39 H2           1.6650    -1.1970    -0.1040 h1         1 2G8       0.079700
     40 H3           2.6060    -3.4170     0.2220 hc         1 2G8       0.053200
     41 H4           4.1770    -2.8890    -0.3580 hc         1 2G8       0.053200
     42 H5           4.4180    -1.3690     1.5710 hc         1 2G8       0.043700
     43 H6           2.7800    -1.5170     3.4770 hc         1 2G8       0.026700
     44 H7           2.0770    -0.7630     2.0570 hc         1 2G8       0.026700
     45 H8           1.6890    -2.4380     2.4410 hc         1 2G8       0.026700
     46 H9           5.2270    -3.7100     1.7350 hc         1 2G8       0.026700
     47 H10          4.6970    -3.1120     3.3050 hc         1 2G8       0.026700
     48 H11          3.6680    -4.2130     2.3880 hc         1 2G8       0.026700
     49 H17          4.4740     4.6240     0.7090 hc         1 2G8       0.024700
     50 H18          5.8070     3.9800     1.6620 hc         1 2G8       0.024700
     51 H19          5.8400     3.8560    -0.0940 hc         1 2G8       0.024700
     52 H15          5.2230     1.6570     0.9620 hc         1 2G8       0.046700
     53 H16          3.8540     2.4160     1.7540 hc         1 2G8       0.046700
     54 H13          2.8710     2.9760    -0.4680 h1         1 2G8       0.041200
     55 H14          4.2460     2.2400    -1.2700 h1         1 2G8       0.041200
     56 H12          1.9580     0.9230    -0.0690 hn         1 2G8       0.355500
@<TRIPOS>BOND
     1     1     2 1   
     2     1    10 1   
     3     1    28 1   
     4     1    29 1   
     5     2     3 ar  
     6     2     7 ar  
     7     3     4 ar  
     8     3    30 1   
     9     4     5 ar  
    10     4    31 1   
    11     5     6 ar  
    12     5    32 1   
    13     6     7 ar  
    14     6    33 1   
    15     7    34 1   
    16     8     9 2   
    17     8    10 1   
    18     8    11 1   
    19    11    12 1   
    20    11    35 1   
    21    12    13 1   
    22    12    36 1   
    23    12    37 1   
    24    13    14 1   
    25    13    15 1   
    26    13    16 1   
    27    16    17 1   
    28    16    38 1   
    29    17    18 1   
    30    17    20 1   
    31    17    39 1   
    32    18    19 2   
    33    18    27 1   
    34    20    21 1   
    35    20    40 1   
    36    20    41 1   
    37    21    22 1   
    38    21    23 1   
    39    21    42 1   
    40    22    43 1   
    41    22    44 1   
    42    22    45 1   
    43    23    46 1   
    44    23    47 1   
    45    23    48 1   
    46    24    25 1   
    47    24    49 1   
    48    24    50 1   
    49    24    51 1   
    50    25    26 1   
    51    25    52 1   
    52    25    53 1   
    53    26    27 1   
    54    26    54 1   
    55    26    55 1   
    56    27    56 1   
@<TRIPOS>SUBSTRUCTURE
     1 2G8         1 TEMP              0 ****  ****    0 ROOT
