@<TRIPOS>MOLECULE
2G9
   62    62     1     0     0
SMALL
No Charge or Current Charge


@<TRIPOS>ATOM
      1 C7           5.3750    -0.8210    -1.0790 c3         1 2G9       0.231900
      2 C6           6.6460    -0.8280    -0.2390 ca         1 2G9      -0.082300
      3 C1           7.6820     0.0880    -0.5110 ca         1 2G9      -0.086500
      4 C2           8.8560     0.0800     0.2630 ca         1 2G9      -0.122000
      5 C3           9.0000    -0.8410     1.3140 ca         1 2G9      -0.114000
      6 C4           7.9690    -1.7550     1.5920 ca         1 2G9      -0.122000
      7 C5           6.7950    -1.7480     0.8180 ca         1 2G9      -0.086500
      8 C9           3.2280     0.2330    -1.0870 c          1 2G9       0.632100
      9 O10          2.8680    -0.3320    -2.1070 o          1 2G9      -0.551000
     10 O8           4.4360     0.0860    -0.4790 os         1 2G9      -0.472100
     11 N11          2.4820     1.1400    -0.3760 ns         1 2G9      -0.448900
     12 C12          1.0810     1.5380    -0.6930 c3         1 2G9      -0.251000
     13 P13         -0.2660     0.3950    -0.1180 p5         1 2G9       1.364300
     14 O14         -0.1540    -0.0040     1.3120 o          1 2G9      -0.822000
     15 O15         -0.5060    -0.7270    -1.0620 o          1 2G9      -0.822000
     16 N16         -1.5320     1.4200    -0.2670 n7         1 2G9      -0.985500
     17 C17         -2.9020     1.0290     0.1840 c3         1 2G9       0.182500
     18 C22         -3.4980    -0.2300    -0.5500 c          1 2G9       0.582100
     19 O23         -3.7780    -0.2330    -1.7450 o          1 2G9      -0.621100
     20 C18         -3.8640     2.2420     0.0380 c3         1 2G9      -0.076400
     21 C19         -3.5190     3.4950     0.8940 c3         1 2G9      -0.056700
     22 C20         -4.4580     4.6730     0.5470 c3         1 2G9      -0.089600
     23 C21         -3.5410     3.2100     2.4150 c3         1 2G9      -0.089600
     24 N24         -3.7110    -1.3380     0.2520 ns         1 2G9      -0.508900
     25 C25         -4.3180    -2.5960    -0.1940 c3         1 2G9       0.101000
     26 C26         -5.8060    -2.7350     0.2240 c3         1 2G9      -0.083700
     27 C28         -6.3320    -4.1550    -0.1250 c3         1 2G9      -0.072400
     28 C27         -6.6910    -1.6110    -0.3760 c3         1 2G9      -0.083100
     29 C29         -7.7400    -4.4800     0.4170 c3         1 2G9      -0.086100
     30 H27          5.6150    -0.5090    -2.1050 h1         1 2G9       0.050700
     31 H28          4.9600    -1.8370    -1.1240 h1         1 2G9       0.050700
     32 H29          7.5770     0.8060    -1.3220 ha         1 2G9       0.120000
     33 H30          9.6530     0.7890     0.0490 ha         1 2G9       0.105000
     34 H31          9.9080    -0.8460     1.9130 ha         1 2G9       0.101000
     35 H32          8.0790    -2.4670     2.4060 ha         1 2G9       0.105000
     36 H33          6.0000    -2.4570     1.0410 ha         1 2G9       0.120000
     37 H34          2.9300     1.5100     0.4550 hn         1 2G9       0.320500
     38 H25          0.8820     2.5110    -0.2300 h1         1 2G9       0.055200
     39 H26          0.9710     1.6430    -1.7790 h1         1 2G9       0.055200
     40 H1          -1.5500     1.4390    -1.2850 hn         1 2G9       0.462000
     41 H2          -2.8710     0.7660     1.2490 h1         1 2G9       0.083700
     42 H3          -3.9020     2.5320    -1.0200 hc         1 2G9       0.030200
     43 H4          -4.8780     1.9120     0.2990 hc         1 2G9       0.030200
     44 H5          -2.5010     3.8140     0.6340 hc         1 2G9       0.065700
     45 H6          -5.5000     4.4260     0.7880 hc         1 2G9       0.028200
     46 H7          -4.1790     5.5710     1.1110 hc         1 2G9       0.028200
     47 H8          -4.4000     4.9150    -0.5210 hc         1 2G9       0.028200
     48 H9          -2.7710     2.4800     2.6930 hc         1 2G9       0.028200
     49 H10         -3.3420     4.1270     2.9830 hc         1 2G9       0.028200
     50 H11         -4.5180     2.8200     2.7260 hc         1 2G9       0.028200
     51 H12         -3.4340    -1.2600     1.2240 hn         1 2G9       0.312500
     52 H13         -4.2320    -2.6840    -1.2860 h1         1 2G9       0.051700
     53 H14         -3.7410    -3.4200     0.2470 h1         1 2G9       0.051700
     54 H15         -5.8440    -2.6340     1.3160 hc         1 2G9       0.041700
     55 H19         -6.3290    -4.2890    -1.2140 hc         1 2G9       0.037700
     56 H20         -5.6350    -4.9000     0.2810 hc         1 2G9       0.037700
     57 H16         -6.3230    -0.6200    -0.0850 hc         1 2G9       0.033033
     58 H17         -6.7000    -1.6650    -1.4710 hc         1 2G9       0.033033
     59 H18         -7.7240    -1.6840    -0.0190 hc         1 2G9       0.033033
     60 H21         -7.7910    -4.3060     1.4980 hc         1 2G9       0.027367
     61 H22         -8.5070    -3.8680    -0.0730 hc         1 2G9       0.027367
     62 H23         -7.9840    -5.5330     0.2290 hc         1 2G9       0.027367
@<TRIPOS>BOND
     1     1     2 1   
     2     1    10 1   
     3     1    30 1   
     4     1    31 1   
     5     2     3 ar  
     6     2     7 ar  
     7     3     4 ar  
     8     3    32 1   
     9     4     5 ar  
    10     4    33 1   
    11     5     6 ar  
    12     5    34 1   
    13     6     7 ar  
    14     6    35 1   
    15     7    36 1   
    16     8     9 2   
    17     8    10 1   
    18     8    11 1   
    19    11    12 1   
    20    11    37 1   
    21    12    13 1   
    22    12    38 1   
    23    12    39 1   
    24    13    14 1   
    25    13    15 1   
    26    13    16 1   
    27    16    17 1   
    28    16    40 1   
    29    17    18 1   
    30    17    20 1   
    31    17    41 1   
    32    18    19 2   
    33    18    24 1   
    34    20    21 1   
    35    20    42 1   
    36    20    43 1   
    37    21    22 1   
    38    21    23 1   
    39    21    44 1   
    40    22    45 1   
    41    22    46 1   
    42    22    47 1   
    43    23    48 1   
    44    23    49 1   
    45    23    50 1   
    46    24    25 1   
    47    24    51 1   
    48    25    26 1   
    49    25    52 1   
    50    25    53 1   
    51    26    27 1   
    52    26    28 1   
    53    26    54 1   
    54    27    29 1   
    55    27    55 1   
    56    27    56 1   
    57    28    57 1   
    58    28    58 1   
    59    28    59 1   
    60    29    60 1   
    61    29    61 1   
    62    29    62 1   
@<TRIPOS>SUBSTRUCTURE
     1 2G9         1 TEMP              0 ****  ****    0 ROOT
