@<TRIPOS>MOLECULE
2G9
   62    62     1     0     0
SMALL
abcg2


@<TRIPOS>ATOM
      1 C7           5.6470     0.6100    -1.0600 c3         1 2G9       0.231900
      2 C6           6.6510     0.0500    -0.0980 ca         1 2G9      -0.082300
      3 C1           7.7150     0.8230     0.3520 ca         1 2G9      -0.086500
      4 C2           8.6380     0.3020     1.2520 ca         1 2G9      -0.122000
      5 C3           8.4980    -0.9990     1.7140 ca         1 2G9      -0.114000
      6 C4           7.4350    -1.7780     1.2700 ca         1 2G9      -0.122000
      7 C5           6.5200    -1.2570     0.3690 ca         1 2G9      -0.086500
      8 C9           3.3650     1.2290    -1.0260 c          1 2G9       0.632100
      9 O10          3.3950     1.4780    -2.2150 o          1 2G9      -0.551000
     10 O8           4.4320     0.7980    -0.3330 os         1 2G9      -0.472100
     11 N11          2.3070     1.3800    -0.2140 ns         1 2G9      -0.448900
     12 C12          0.9580     1.5630    -0.7120 c3         1 2G9      -0.251000
     13 P13          0.1000    -0.0670    -0.8540 p5         1 2G9       1.364300
     14 O14          0.0510    -0.6570     0.5380 o          1 2G9      -0.822000
     15 O15          0.7570    -0.8220    -1.9820 o          1 2G9      -0.822000
     16 N16         -1.4760     0.3860    -1.3020 n7         1 2G9      -0.985500
     17 C17         -2.6320     0.1880    -0.4720 c3         1 2G9       0.182500
     18 C22         -3.5200    -0.9350    -1.0010 c          1 2G9       0.582100
     19 O23         -3.7400    -1.0710    -2.1980 o          1 2G9      -0.621100
     20 C18         -3.4940     1.4520    -0.3440 c3         1 2G9      -0.076400
     21 C19         -2.7730     2.6440     0.2830 c3         1 2G9      -0.056700
     22 C20         -3.7120     3.8470     0.3280 c3         1 2G9      -0.089600
     23 C21         -2.2430     2.3250     1.6780 c3         1 2G9      -0.089600
     24 N24         -4.0630    -1.7110    -0.0500 ns         1 2G9      -0.508900
     25 C25         -5.0660    -2.7290    -0.2610 c3         1 2G9       0.101000
     26 C26         -6.3020    -2.5100     0.6140 c3         1 2G9      -0.083700
     27 C28         -7.2430    -3.7090     0.4820 c3         1 2G9      -0.072400
     28 C27         -6.9920    -1.1940     0.2770 c3         1 2G9      -0.083100
     29 C29         -8.3870    -3.7080     1.4860 c3         1 2G9      -0.086100
     30 H27          5.9960     1.5580    -1.4740 h1         1 2G9       0.050700
     31 H28          5.4860    -0.0820    -1.8910 h1         1 2G9       0.050700
     32 H29          7.8280     1.8410    -0.0030 ha         1 2G9       0.120000
     33 H30          9.4620     0.9140     1.5940 ha         1 2G9       0.105000
     34 H31          9.2140    -1.4070     2.4160 ha         1 2G9       0.101000
     35 H32          7.3230    -2.7950     1.6250 ha         1 2G9       0.105000
     36 H33          5.7000    -1.8730     0.0200 ha         1 2G9       0.120000
     37 H34          2.3890     1.0200     0.7240 hn         1 2G9       0.320500
     38 H25          0.4190     2.2190    -0.0250 h1         1 2G9       0.055200
     39 H26          0.9970     2.0740    -1.6730 h1         1 2G9       0.055200
     40 H1          -1.6770     0.4220    -2.2910 hn         1 2G9       0.462000
     41 H2          -2.2730    -0.0920     0.5200 h1         1 2G9       0.083700
     42 H3          -3.8650     1.7320    -1.3350 hc         1 2G9       0.030200
     43 H4          -4.3780     1.2150     0.2610 hc         1 2G9       0.030200
     44 H5          -1.9220     2.8990    -0.3570 hc         1 2G9       0.065700
     45 H6          -4.5820     3.6390     0.9550 hc         1 2G9       0.028200
     46 H7          -3.2120     4.7270     0.7360 hc         1 2G9       0.028200
     47 H8          -4.0770     4.1060    -0.6680 hc         1 2G9       0.028200
     48 H9          -1.4800     1.5450     1.6620 hc         1 2G9       0.028200
     49 H10         -1.7940     3.2080     2.1360 hc         1 2G9       0.028200
     50 H11         -3.0510     1.9880     2.3330 hc         1 2G9       0.028200
     51 H12         -3.7900    -1.5380     0.9050 hn         1 2G9       0.312500
     52 H13         -5.3430    -2.7220    -1.3160 h1         1 2G9       0.051700
     53 H14         -4.6400    -3.7140    -0.0470 h1         1 2G9       0.051700
     54 H15         -5.9630    -2.4690     1.6580 hc         1 2G9       0.041700
     55 H19         -7.6440    -3.7410    -0.5370 hc         1 2G9       0.037700
     56 H20         -6.6630    -4.6290     0.6060 hc         1 2G9       0.037700
     57 H16         -6.3060    -0.3500     0.3550 hc         1 2G9       0.033033
     58 H17         -7.3830    -1.2130    -0.7440 hc         1 2G9       0.033033
     59 H18         -7.8270    -0.9920     0.9480 hc         1 2G9       0.033033
     60 H21         -8.0070    -3.6740     2.5090 hc         1 2G9       0.027367
     61 H22         -9.0510    -2.8550     1.3530 hc         1 2G9       0.027367
     62 H23         -8.9930    -4.6100     1.3910 hc         1 2G9       0.027367
@<TRIPOS>BOND
     1     1     2 1   
     2     1    10 1   
     3     1    30 1   
     4     1    31 1   
     5     2     3 ar  
     6     2     7 ar  
     7     3     4 ar  
     8     3    32 1   
     9     4     5 ar  
    10     4    33 1   
    11     5     6 ar  
    12     5    34 1   
    13     6     7 ar  
    14     6    35 1   
    15     7    36 1   
    16     8     9 2   
    17     8    10 1   
    18     8    11 1   
    19    11    12 1   
    20    11    37 1   
    21    12    13 1   
    22    12    38 1   
    23    12    39 1   
    24    13    14 1   
    25    13    15 1   
    26    13    16 1   
    27    16    17 1   
    28    16    40 1   
    29    17    18 1   
    30    17    20 1   
    31    17    41 1   
    32    18    19 2   
    33    18    24 1   
    34    20    21 1   
    35    20    42 1   
    36    20    43 1   
    37    21    22 1   
    38    21    23 1   
    39    21    44 1   
    40    22    45 1   
    41    22    46 1   
    42    22    47 1   
    43    23    48 1   
    44    23    49 1   
    45    23    50 1   
    46    24    25 1   
    47    24    51 1   
    48    25    26 1   
    49    25    52 1   
    50    25    53 1   
    51    26    27 1   
    52    26    28 1   
    53    26    54 1   
    54    27    29 1   
    55    27    55 1   
    56    27    56 1   
    57    28    57 1   
    58    28    58 1   
    59    28    59 1   
    60    29    60 1   
    61    29    61 1   
    62    29    62 1   
@<TRIPOS>SUBSTRUCTURE
     1 2G9         1 TEMP              0 ****  ****    0 ROOT
