@<TRIPOS>MOLECULE
2GA
   25    26     1     0     0
SMALL
No Charge or Current Charge


@<TRIPOS>ATOM
      1 C14         -2.6970    -0.0730    -2.6160 c3         1 2GA      -0.044800
      2 C10         -2.8640     0.2960    -1.1660 cc         1 2GA      -0.047300
      3 N4          -3.6030     1.3680    -0.6630 na         1 2GA       0.005800
      4 N8          -3.5640     1.4810     0.7280 nc         1 2GA      -0.524800
      5 C9          -2.7950     0.4690     1.0880 cd         1 2GA       0.322300
      6 C13         -2.4590     0.2090     2.5290 c3         1 2GA      -0.124400
      7 C1          -2.3680    -0.2680    -0.0310 cd         1 2GA      -0.308000
      8 S11         -1.2970    -1.6860    -0.0820 ss         1 2GA      -0.028300
      9 C2           0.2370    -0.7890    -0.0290 cc         1 2GA       0.480700
     10 S3           1.7550    -1.6350    -0.0340 ss         1 2GA      -0.230800
     11 N5           0.2960     0.5390     0.0170 nd         1 2GA      -0.319000
     12 N7           1.6090     0.9780     0.0540 nd         1 2GA      -0.336000
     13 C6           2.4460    -0.0480     0.0320 cc         1 2GA       0.492700
     14 S12          4.1900     0.2040     0.0690 ss         1 2GA      -0.316300
     15 C15          4.3480     2.0490     0.1360 c3         1 2GA       0.031900
     16 H141        -1.6490     0.0220    -2.9220 hc         1 2GA       0.062700
     17 H142        -3.0090    -1.1090    -2.7920 hc         1 2GA       0.062700
     18 H143        -3.2990     0.5740    -3.2650 hc         1 2GA       0.062700
     19 H4          -4.1320     2.0320    -1.2270 hn         1 2GA       0.372000
     20 H131        -2.5720    -0.8550     2.7680 hc         1 2GA       0.053700
     21 H132        -1.4230     0.4950     2.7420 hc         1 2GA       0.053700
     22 H133        -3.1120     0.7750     3.2040 hc         1 2GA       0.053700
     23 H151         3.8840     2.4970    -0.7510 h1         1 2GA       0.075033
     24 H152         3.8540     2.4350     1.0370 h1         1 2GA       0.075033
     25 H153         5.4090     2.3270     0.1630 h1         1 2GA       0.075033
@<TRIPOS>BOND
     1     1     2 1   
     2     1    16 1   
     3     1    17 1   
     4     1    18 1   
     5     2     3 1   
     6     2     7 2   
     7     3     4 1   
     8     3    19 1   
     9     4     5 2   
    10     5     6 1   
    11     5     7 1   
    12     6    20 1   
    13     6    21 1   
    14     6    22 1   
    15     7     8 1   
    16     8     9 1   
    17     9    10 1   
    18     9    11 2   
    19    10    13 1   
    20    11    12 1   
    21    12    13 2   
    22    13    14 1   
    23    14    15 1   
    24    15    23 1   
    25    15    24 1   
    26    15    25 1   
@<TRIPOS>SUBSTRUCTURE
     1 2GA         1 TEMP              0 ****  ****    0 ROOT
