@<TRIPOS>MOLECULE
2GA
   25    26     1     0     0
SMALL
bcc


@<TRIPOS>ATOM
      1 C14         -2.3740     0.2600    -2.4520 c3         1 2GA      -0.044800
      2 C10         -2.7950     0.3960    -1.0380 cc         1 2GA       0.003400
      3 N4          -3.7010     1.2750    -0.6020 na         1 2GA       0.005400
      4 N8          -3.8920     1.2470     0.7230 nc         1 2GA      -0.524800
      5 C9          -3.0750     0.3200     1.1760 cd         1 2GA       0.387600
      6 C13         -2.9750    -0.0180     2.6210 c3         1 2GA      -0.124400
      7 C1          -2.3610    -0.2570     0.1020 cd         1 2GA      -0.246400
      8 S11         -1.2000    -1.5440     0.1800 ss         1 2GA      -0.155200
      9 C2           0.3090    -0.6630     0.0940 cc         1 2GA       0.480700
     10 S3           1.8100    -1.5080     0.2990 ss         1 2GA      -0.230800
     11 N5           0.4470     0.5960    -0.1360 nd         1 2GA      -0.319000
     12 N7           1.7420     0.9930    -0.1640 nd         1 2GA      -0.336000
     13 C6           2.5740     0.0280     0.0370 cc         1 2GA       0.492700
     14 S12          4.3030     0.1600     0.0630 ss         1 2GA      -0.268400
     15 C15          4.5020     1.9240    -0.2750 c3         1 2GA      -0.016000
     16 H141        -1.5260     0.9130    -2.6630 hc         1 2GA       0.062700
     17 H142        -2.0600    -0.7620    -2.6550 hc         1 2GA       0.062700
     18 H143        -3.1790     0.5180    -3.1390 hc         1 2GA       0.062700
     19 H4          -4.2260     1.9270    -1.1640 hn         1 2GA       0.321700
     20 H131        -3.1920    -1.0710     2.7970 hc         1 2GA       0.053700
     21 H132        -1.9700     0.1730     2.9990 hc         1 2GA       0.053700
     22 H133        -3.6760     0.5760     3.2040 hc         1 2GA       0.053700
     23 H151         4.0800     2.1830    -1.2420 h1         1 2GA       0.075033
     24 H152         4.0460     2.5230     0.5090 h1         1 2GA       0.075033
     25 H153         5.5750     2.0980    -0.2870 h1         1 2GA       0.075033
@<TRIPOS>BOND
     1     1     2 1   
     2     1    16 1   
     3     1    17 1   
     4     1    18 1   
     5     2     3 1   
     6     2     7 2   
     7     3     4 1   
     8     3    19 1   
     9     4     5 2   
    10     5     6 1   
    11     5     7 1   
    12     6    20 1   
    13     6    21 1   
    14     6    22 1   
    15     7     8 1   
    16     8     9 1   
    17     9    10 1   
    18     9    11 2   
    19    10    13 1   
    20    11    12 1   
    21    12    13 2   
    22    13    14 1   
    23    14    15 1   
    24    15    23 1   
    25    15    24 1   
    26    15    25 1   
@<TRIPOS>SUBSTRUCTURE
     1 2GA         1 TEMP              0 ****  ****    0 ROOT
