@<TRIPOS>MOLECULE
2GC
   63    64     1     0     0
SMALL
bcc


@<TRIPOS>ATOM
      1 C7          -2.7300     2.4340     0.2700 c3         1 2GC       0.207700
      2 C6          -4.1490     2.7980     0.5880 ca         1 2GC      -0.084300
      3 C1          -4.8130     3.7770    -0.1430 ca         1 2GC      -0.104500
      4 C2          -6.1290     4.1110     0.1540 ca         1 2GC      -0.139000
      5 C3          -6.7940     3.4600     1.1830 ca         1 2GC      -0.130000
      6 C4          -6.1380     2.4780     1.9170 ca         1 2GC      -0.139000
      7 C5          -4.8240     2.1510     1.6220 ca         1 2GC      -0.104500
      8 C9          -1.5580     0.6050    -0.6500 c          1 2GC       0.754100
      9 O10         -0.5000     1.1610    -0.4360 o          1 2GC      -0.620000
     10 O8          -2.7490     1.1370    -0.3310 os         1 2GC      -0.442900
     11 N11         -1.7120    -0.5800    -1.2640 ns         1 2GC      -0.512900
     12 C12         -0.5980    -1.4780    -1.4830 c3         1 2GC      -0.109200
     13 P13         -0.4380    -2.6760    -0.0820 p5         1 2GC       1.200500
     14 O14         -0.1710    -1.8890     1.1850 o          1 2GC      -0.817000
     15 O15         -1.6340    -3.5900    -0.1660 o          1 2GC      -0.817000
     16 N16          0.9780    -3.5490    -0.4290 n7         1 2GC      -0.928300
     17 C17          2.2620    -3.2640     0.1800 c3         1 2GC       0.175500
     18 C22          2.9280    -2.0480    -0.4740 c          1 2GC       0.626100
     19 O23          3.7800    -2.1440    -1.3500 o          1 2GC      -0.652100
     20 C18          3.1740    -4.4830     0.1590 c3         1 2GC      -0.063400
     21 C19          2.5760    -5.7250     0.8230 c3         1 2GC      -0.055700
     22 C20          3.5960    -6.8590     0.7950 c3         1 2GC      -0.085600
     23 C21          2.1160    -5.4510     2.2510 c3         1 2GC      -0.085600
     24 C27          3.1330     2.8420    -0.0810 ca         1 2GC      -0.062300
     25 C32          4.4380     3.3200    -0.1680 ca         1 2GC      -0.123500
     26 C31          4.7080     4.5530    -0.7490 ca         1 2GC      -0.138000
     27 C30          3.6720     5.3270    -1.2550 ca         1 2GC      -0.144000
     28 C29          2.3660     4.8590    -1.1750 ca         1 2GC      -0.138000
     29 C28          2.1010     3.6260    -0.5950 ca         1 2GC      -0.123500
     30 C26          2.8430     1.4910     0.5100 c3         1 2GC      -0.051100
     31 C25          2.8320     0.4100    -0.5690 c3         1 2GC       0.108000
     32 N24          2.4730    -0.8720    -0.0080 ns         1 2GC      -0.573900
     33 H16         -2.2890     3.1640    -0.4120 h1         1 2GC       0.050200
     34 H17         -2.1230     2.4180     1.1780 h1         1 2GC       0.050200
     35 H18         -4.2980     4.2860    -0.9490 ha         1 2GC       0.138000
     36 H19         -6.6340     4.8770    -0.4200 ha         1 2GC       0.124500
     37 H20         -7.8190     3.7180     1.4160 ha         1 2GC       0.120000
     38 H21         -6.6530     1.9710     2.7230 ha         1 2GC       0.124500
     39 H22         -4.3150     1.3910     2.2040 ha         1 2GC       0.138000
     40 H32         -2.6360    -0.9820    -1.2880 hn         1 2GC       0.325500
     41 H14         -0.7540    -2.0130    -2.4230 h1         1 2GC       0.057200
     42 H15          0.3090    -0.8870    -1.6000 h1         1 2GC       0.057200
     43 H1           1.0290    -4.0240    -1.3200 hn         1 2GC       0.386800
     44 H2           2.0710    -3.0020     1.2220 h1         1 2GC       0.083700
     45 H3           3.4500    -4.7210    -0.8730 hc         1 2GC       0.037700
     46 H4           4.1070    -4.2230     0.6710 hc         1 2GC       0.037700
     47 H5           1.7020    -6.0360     0.2410 hc         1 2GC       0.063700
     48 H6           4.4920    -6.5890     1.3620 hc         1 2GC       0.026700
     49 H7           3.1910    -7.7720     1.2340 hc         1 2GC       0.026700
     50 H8           3.9090    -7.0930    -0.2240 hc         1 2GC       0.026700
     51 H9           2.9350    -5.0560     2.8580 hc         1 2GC       0.026700
     52 H10          1.2950    -4.7340     2.2860 hc         1 2GC       0.026700
     53 H11          1.7650    -6.3670     2.7300 hc         1 2GC       0.026700
     54 H31          5.2530     2.7250     0.2300 ha         1 2GC       0.142000
     55 H30          5.7290     4.9090    -0.8050 ha         1 2GC       0.119000
     56 H29          3.8810     6.2880    -1.7060 ha         1 2GC       0.116000
     57 H28          1.5510     5.4570    -1.5630 ha         1 2GC       0.119000
     58 H27          1.0810     3.2640    -0.5350 ha         1 2GC       0.142000
     59 H25          3.5930     1.2400     1.2630 hc         1 2GC       0.061200
     60 H26          1.8720     1.5070     1.0090 hc         1 2GC       0.061200
     61 H23          2.1310     0.6960    -1.3600 h1         1 2GC       0.047700
     62 H24          3.8180     0.3310    -1.0250 h1         1 2GC       0.047700
     63 H12          1.6480    -0.9060     0.5860 hn         1 2GC       0.363500
@<TRIPOS>BOND
     1     1     2 1   
     2     1    10 1   
     3     1    33 1   
     4     1    34 1   
     5     2     3 ar  
     6     2     7 ar  
     7     3     4 ar  
     8     3    35 1   
     9     4     5 ar  
    10     4    36 1   
    11     5     6 ar  
    12     5    37 1   
    13     6     7 ar  
    14     6    38 1   
    15     7    39 1   
    16     8     9 2   
    17     8    10 1   
    18     8    11 1   
    19    11    12 1   
    20    11    40 1   
    21    12    13 1   
    22    12    41 1   
    23    12    42 1   
    24    13    14 1   
    25    13    15 1   
    26    13    16 1   
    27    16    17 1   
    28    16    43 1   
    29    17    18 1   
    30    17    20 1   
    31    17    44 1   
    32    18    19 2   
    33    18    32 1   
    34    20    21 1   
    35    20    45 1   
    36    20    46 1   
    37    21    22 1   
    38    21    23 1   
    39    21    47 1   
    40    22    48 1   
    41    22    49 1   
    42    22    50 1   
    43    23    51 1   
    44    23    52 1   
    45    23    53 1   
    46    24    25 ar  
    47    24    29 ar  
    48    24    30 1   
    49    25    26 ar  
    50    25    54 1   
    51    26    27 ar  
    52    26    55 1   
    53    27    28 ar  
    54    27    56 1   
    55    28    29 ar  
    56    28    57 1   
    57    29    58 1   
    58    30    31 1   
    59    30    59 1   
    60    30    60 1   
    61    31    32 1   
    62    31    61 1   
    63    31    62 1   
    64    32    63 1   
@<TRIPOS>SUBSTRUCTURE
     1 2GC         1 TEMP              0 ****  ****    0 ROOT
