@<TRIPOS>MOLECULE
2GC
   63    64     1     0     0
SMALL
No Charge or Current Charge


@<TRIPOS>ATOM
      1 C7          -3.3970     2.3060     1.6340 c3         1 2GC       0.230900
      2 C6          -4.7260     2.8730     1.1510 ca         1 2GC      -0.084300
      3 C1          -4.7520     3.9860     0.2870 ca         1 2GC      -0.086500
      4 C2          -5.9790     4.5100    -0.1570 ca         1 2GC      -0.121000
      5 C3          -7.1870     3.9250     0.2600 ca         1 2GC      -0.112000
      6 C4          -7.1670     2.8140     1.1200 ca         1 2GC      -0.121000
      7 C5          -5.9410     2.2890     1.5640 ca         1 2GC      -0.086500
      8 C9          -1.7770     0.6860     0.9500 c          1 2GC       0.638100
      9 O10         -1.0490     0.8980     1.9080 o          1 2GC      -0.571000
     10 O8          -2.9580     1.3110     0.6960 os         1 2GC      -0.466100
     11 N11         -1.5240    -0.2110    -0.0570 ns         1 2GC      -0.445900
     12 C12         -0.3440    -1.1170    -0.1240 c3         1 2GC      -0.267000
     13 P13         -0.5270    -2.7880     0.6650 p5         1 2GC       1.358300
     14 O14         -0.3060    -2.7560     2.1370 o          1 2GC      -0.817000
     15 O15         -1.7840    -3.4450     0.2130 o          1 2GC      -0.817000
     16 N16          0.7170    -3.6030    -0.0340 n7         1 2GC      -0.983500
     17 C17          2.1670    -3.2860     0.1650 c3         1 2GC       0.175500
     18 C22          2.6570    -1.9730    -0.5510 c          1 2GC       0.559100
     19 O23          2.5650    -1.8030    -1.7620 o          1 2GC      -0.652100
     20 C18          3.0290    -4.4910    -0.3070 c3         1 2GC      -0.063400
     21 C19          2.8170    -5.8270     0.4650 c3         1 2GC      -0.055700
     22 C20          3.6170    -6.9750    -0.1950 c3         1 2GC      -0.085600
     23 C21          3.1650    -5.7160     1.9690 c3         1 2GC      -0.085600
     24 C27          3.0210     2.6580    -0.8980 ca         1 2GC      -0.062300
     25 C32          3.1280     3.7160     0.0270 ca         1 2GC      -0.105500
     26 C31          3.6010     4.9730    -0.3870 ca         1 2GC      -0.120000
     27 C30          3.9710     5.1800    -1.7260 ca         1 2GC      -0.126000
     28 C29          3.8680     4.1290    -2.6520 ca         1 2GC      -0.120000
     29 C28          3.3950     2.8710    -2.2390 ca         1 2GC      -0.105500
     30 C26          2.5140     1.2930    -0.4530 c3         1 2GC      -0.051100
     31 C25          3.6690     0.3090    -0.1770 c3         1 2GC       0.108000
     32 N24          3.1950    -1.0030     0.2750 ns         1 2GC      -0.506900
     33 H16         -2.6610     3.1170     1.7140 h1         1 2GC       0.050200
     34 H17         -3.5260     1.8690     2.6330 h1         1 2GC       0.050200
     35 H18         -3.8210     4.4430    -0.0430 ha         1 2GC       0.120000
     36 H19         -5.9930     5.3690    -0.8240 ha         1 2GC       0.106500
     37 H20         -8.1360     4.3310    -0.0840 ha         1 2GC       0.102000
     38 H21         -8.1010     2.3600     1.4420 ha         1 2GC       0.106500
     39 H22         -5.9340     1.4270     2.2280 ha         1 2GC       0.120000
     40 H32         -2.2420    -0.2720    -0.7700 hn         1 2GC       0.325500
     41 H14         -0.0870    -1.2770    -1.1770 h1         1 2GC       0.057200
     42 H15          0.5000    -0.6320     0.3760 h1         1 2GC       0.057200
     43 H1           0.4890    -3.5290    -1.0220 hn         1 2GC       0.442000
     44 H2           2.3650    -3.1430     1.2360 h1         1 2GC       0.083700
     45 H3           2.8350    -4.6610    -1.3730 hc         1 2GC       0.037700
     46 H4           4.0870    -4.2120    -0.2310 hc         1 2GC       0.037700
     47 H5           1.7560    -6.0970     0.3920 hc         1 2GC       0.063700
     48 H6           4.6940    -6.7750    -0.1530 hc         1 2GC       0.026700
     49 H7           3.4240    -7.9260     0.3160 hc         1 2GC       0.026700
     50 H8           3.3290    -7.0940    -1.2460 hc         1 2GC       0.026700
     51 H9           4.2000    -5.3810     2.1080 hc         1 2GC       0.026700
     52 H10          2.5000    -5.0090     2.4790 hc         1 2GC       0.026700
     53 H11          3.0510    -6.6880     2.4650 hc         1 2GC       0.026700
     54 H31          2.8450     3.5640     1.0670 ha         1 2GC       0.124000
     55 H30          3.6810     5.7870     0.3310 ha         1 2GC       0.101000
     56 H29          4.3370     6.1540    -2.0460 ha         1 2GC       0.098000
     57 H28          4.1550     4.2880    -3.6890 ha         1 2GC       0.101000
     58 H27          3.3190     2.0610    -2.9620 ha         1 2GC       0.124000
     59 H25          1.9030     1.3910     0.4530 hc         1 2GC       0.061200
     60 H26          1.8560     0.8730    -1.2230 hc         1 2GC       0.061200
     61 H23          4.2680     0.1790    -1.0890 h1         1 2GC       0.047700
     62 H24          4.3240     0.7280     0.5970 h1         1 2GC       0.047700
     63 H12          3.2390    -1.2120     1.2670 hn         1 2GC       0.363500
@<TRIPOS>BOND
     1     1     2 1   
     2     1    10 1   
     3     1    33 1   
     4     1    34 1   
     5     2     3 ar  
     6     2     7 ar  
     7     3     4 ar  
     8     3    35 1   
     9     4     5 ar  
    10     4    36 1   
    11     5     6 ar  
    12     5    37 1   
    13     6     7 ar  
    14     6    38 1   
    15     7    39 1   
    16     8     9 2   
    17     8    10 1   
    18     8    11 1   
    19    11    12 1   
    20    11    40 1   
    21    12    13 1   
    22    12    41 1   
    23    12    42 1   
    24    13    14 1   
    25    13    15 1   
    26    13    16 1   
    27    16    17 1   
    28    16    43 1   
    29    17    18 1   
    30    17    20 1   
    31    17    44 1   
    32    18    19 2   
    33    18    32 1   
    34    20    21 1   
    35    20    45 1   
    36    20    46 1   
    37    21    22 1   
    38    21    23 1   
    39    21    47 1   
    40    22    48 1   
    41    22    49 1   
    42    22    50 1   
    43    23    51 1   
    44    23    52 1   
    45    23    53 1   
    46    24    25 ar  
    47    24    29 ar  
    48    24    30 1   
    49    25    26 ar  
    50    25    54 1   
    51    26    27 ar  
    52    26    55 1   
    53    27    28 ar  
    54    27    56 1   
    55    28    29 ar  
    56    28    57 1   
    57    29    58 1   
    58    30    31 1   
    59    30    59 1   
    60    30    60 1   
    61    31    32 1   
    62    31    61 1   
    63    31    62 1   
    64    32    63 1   
@<TRIPOS>SUBSTRUCTURE
     1 2GC         1 TEMP              0 ****  ****    0 ROOT
