@<TRIPOS>MOLECULE
2GD
   27    28     1     0     0
SMALL
No Charge or Current Charge


@<TRIPOS>ATOM
      1 C13          1.8860    -0.9220     0.1820 ca         1 2GD      -0.340000
      2 N01          2.6370     2.7980    -1.0950 nv         1 2GD      -1.083900
      3 C02          2.3810     1.5440    -0.6630 ca         1 2GD       0.432900
      4 N03          1.1090     1.1340    -0.7440 nb         1 2GD      -0.272000
      5 C04          0.8400    -0.1110    -0.3070 cp         1 2GD       0.236500
      6 C05         -0.5610    -0.6220    -0.4250 cp         1 2GD      -0.127500
      7 C06         -0.7780    -1.9030    -0.9950 ca         1 2GD      -0.087000
      8 C07         -2.0710    -2.4290    -1.1390 ca         1 2GD      -0.107000
      9 C08         -3.1810    -1.6870    -0.7090 ca         1 2GD      -0.092000
     10 C09         -2.9980    -0.4220    -0.1280 ca         1 2GD       0.110000
     11 Cl1         -4.4240     0.4650     0.4180 cl         1 2GD      -0.176000
     12 C11         -1.6990     0.1160     0.0200 ca         1 2GD       0.149000
     13 Cl2         -1.5230     1.6860     0.8210 cl         1 2GD      -0.157000
     14 C14          3.1750    -0.3800     0.2180 ca         1 2GD       0.426900
     15 N15          4.2660    -1.0850     0.6860 nu         1 2GD      -0.937100
     16 C16          4.2880    -2.4620     1.2090 c3         1 2GD       0.224100
     17 N17          3.4330     0.8620    -0.2040 nb         1 2GD      -0.342000
     18 H1           1.6880    -1.9320     0.5250 ha         1 2GD       0.134000
     19 H2           1.8490     3.4300    -1.2160 hn         1 2GD       0.504000
     20 H3           3.5220     3.2240    -0.8310 hn         1 2GD       0.504000
     21 H4           0.0700    -2.4890    -1.3420 ha         1 2GD       0.125000
     22 H5          -2.2130    -3.4110    -1.5860 ha         1 2GD       0.122000
     23 H6          -4.1830    -2.0940    -0.8190 ha         1 2GD       0.131000
     24 H13          5.1520    -0.5750     0.6570 hn         1 2GD       0.505000
     25 H14          3.9400    -3.1700     0.4450 h1         1 2GD       0.039033
     26 H15          5.3070    -2.7450     1.5050 h1         1 2GD       0.039033
     27 H16          3.6350    -2.5500     2.0890 h1         1 2GD       0.039033
@<TRIPOS>BOND
     1     1     5 ar  
     2     1    14 ar  
     3     1    18 1   
     4     2     3 1   
     5     2    19 1   
     6     2    20 1   
     7     3     4 ar  
     8     3    17 ar  
     9     4     5 ar  
    10     5     6 1   
    11     6     7 ar  
    12     6    12 ar  
    13     7     8 ar  
    14     7    21 1   
    15     8     9 ar  
    16     8    22 1   
    17     9    10 ar  
    18     9    23 1   
    19    10    11 1   
    20    10    12 ar  
    21    12    13 1   
    22    14    15 1   
    23    14    17 ar  
    24    15    16 1   
    25    15    24 1   
    26    16    25 1   
    27    16    26 1   
    28    16    27 1   
@<TRIPOS>SUBSTRUCTURE
     1 2GD         1 TEMP              0 ****  ****    0 ROOT
