@<TRIPOS>MOLECULE
2GD
   27    28     1     0     0
SMALL
abcg2


@<TRIPOS>ATOM
      1 C13          1.8520    -0.9210     0.2400 ca         1 2GD      -0.340000
      2 N01          2.6110     2.7560    -1.1890 nv         1 2GD      -1.083900
      3 C02          2.3590     1.5250    -0.7110 ca         1 2GD       0.432900
      4 N03          1.0950     1.0940    -0.7950 nb         1 2GD      -0.272000
      5 C04          0.8740    -0.1240    -0.3130 cp         1 2GD       0.236500
      6 C05         -0.5120    -0.6430    -0.4250 cp         1 2GD      -0.127500
      7 C06         -0.7470    -1.7850    -1.1840 ca         1 2GD      -0.087000
      8 C07         -2.0280    -2.2920    -1.3330 ca         1 2GD      -0.107000
      9 C08         -3.0970    -1.6650    -0.7160 ca         1 2GD      -0.092000
     10 C09         -2.8750    -0.5350     0.0550 ca         1 2GD       0.110000
     11 CL1         -4.2130     0.2210     0.8350 cl         1 2GD      -0.176000
     12 C11         -1.5900    -0.0210     0.2040 ca         1 2GD       0.149000
     13 CL2         -1.3340     1.3500     1.2120 cl         1 2GD      -0.157000
     14 C14          3.1510    -0.3700     0.2720 ca         1 2GD       0.426900
     15 N15          4.1930    -1.0380     0.7840 nu         1 2GD      -0.937100
     16 C16          4.1270    -2.3790     1.3050 c3         1 2GD       0.224100
     17 N17          3.3910     0.8520    -0.2050 nb         1 2GD      -0.342000
     18 H1           1.6250    -1.9030     0.6270 ha         1 2GD       0.134000
     19 H2           1.8690     3.3160    -1.5660 hn         1 2GD       0.504000
     20 H3           3.5410     3.1320    -1.1650 hn         1 2GD       0.504000
     21 H4           0.0870    -2.2700    -1.6740 ha         1 2GD       0.125000
     22 H5          -2.1970    -3.1750    -1.9330 ha         1 2GD       0.122000
     23 H6          -4.1010    -2.0510    -0.8270 ha         1 2GD       0.131000
     24 H13          5.0910    -0.5860     0.7260 hn         1 2GD       0.505000
     25 H14          3.8180    -3.1030     0.5470 h1         1 2GD       0.039033
     26 H15          5.1160    -2.6600     1.6530 h1         1 2GD       0.039033
     27 H16          3.4390    -2.4550     2.1490 h1         1 2GD       0.039033
@<TRIPOS>BOND
     1     1     5 ar  
     2     1    14 ar  
     3     1    18 1   
     4     2     3 1   
     5     2    19 1   
     6     2    20 1   
     7     3     4 ar  
     8     3    17 ar  
     9     4     5 ar  
    10     5     6 1   
    11     6     7 ar  
    12     6    12 ar  
    13     7     8 ar  
    14     7    21 1   
    15     8     9 ar  
    16     8    22 1   
    17     9    10 ar  
    18     9    23 1   
    19    10    11 1   
    20    10    12 ar  
    21    12    13 1   
    22    14    15 1   
    23    14    17 ar  
    24    15    16 1   
    25    15    24 1   
    26    16    25 1   
    27    16    26 1   
    28    16    27 1   
@<TRIPOS>SUBSTRUCTURE
     1 2GD         1 TEMP              0 ****  ****    0 ROOT
