@<TRIPOS>MOLECULE
2GE
   31    33     1     0     0
SMALL
No Charge or Current Charge


@<TRIPOS>ATOM
      1 C13         -1.6840     0.2950     0.2480 ca         1 2GE      -0.325000
      2 C17         -4.7390     2.0710    -0.3370 cx         1 2GE      -0.133900
      3 N01         -1.1760    -3.6100    -0.4950 nv         1 2GE      -1.053900
      4 C02         -1.3450    -2.2920    -0.2410 ca         1 2GE       0.410900
      5 N03         -0.2420    -1.5330    -0.2750 nb         1 2GE      -0.263000
      6 C04         -0.3960    -0.2200    -0.0160 cp         1 2GE       0.230500
      7 C05          0.8040     0.6700    -0.0930 cp         1 2GE      -0.128500
      8 C06          0.7170     1.8760    -0.8350 ca         1 2GE      -0.087000
      9 C07          1.8140     2.7450    -0.9480 ca         1 2GE      -0.107000
     10 C08          3.0250     2.4290    -0.3150 ca         1 2GE      -0.091000
     11 C09          3.1380     1.2500     0.4380 ca         1 2GE       0.110000
     12 Cl1          4.6760     0.9070     1.2350 cl         1 2GE      -0.175000
     13 C11          2.0390     0.3690     0.5570 ca         1 2GE       0.149000
     14 Cl2          2.2180    -1.0700     1.5740 cl         1 2GE      -0.154000
     15 C14         -2.7600    -0.5990     0.2540 ca         1 2GE       0.424900
     16 N15         -4.0600    -0.2000     0.5050 nu         1 2GE      -0.912100
     17 C16         -4.5120     1.1270     0.8170 cx         1 2GE       0.165500
     18 C18         -5.9170     1.4960     0.4110 cx         1 2GE      -0.133900
     19 N19         -2.5980    -1.9040     0.0100 nb         1 2GE      -0.332000
     20 H1          -1.8270     1.3520     0.4430 ha         1 2GE       0.138000
     21 H3          -4.5460     1.7040    -1.3410 hc         1 2GE       0.080200
     22 H4          -2.0010    -4.1690    -0.6990 hn         1 2GE       0.489000
     23 H5          -0.2990    -3.9180    -0.9070 hn         1 2GE       0.489000
     24 H6          -0.2120     2.1330    -1.3400 ha         1 2GE       0.124000
     25 H7           1.7250     3.6610    -1.5290 ha         1 2GE       0.122000
     26 H8           3.8750     3.1020    -0.4020 ha         1 2GE       0.131000
     27 H9          -4.7270    -0.9730     0.4840 hn         1 2GE       0.508000
     28 H10         -4.1220     1.5480     1.7480 h1         1 2GE       0.084700
     29 H11         -6.4720     2.1580     1.0700 hc         1 2GE       0.080200
     30 H12         -6.5210     0.7470    -0.0950 hc         1 2GE       0.080200
     31 H2          -4.5010     3.1200    -0.1810 hc         1 2GE       0.080200
@<TRIPOS>BOND
     1     1     6 ar  
     2     1    15 ar  
     3     1    20 1   
     4     2    17 1   
     5     2    18 1   
     6     2    21 1   
     7     2    31 1   
     8     3     4 1   
     9     3    22 1   
    10     3    23 1   
    11     4     5 ar  
    12     4    19 ar  
    13     5     6 ar  
    14     6     7 1   
    15     7     8 ar  
    16     7    13 ar  
    17     8     9 ar  
    18     8    24 1   
    19     9    10 ar  
    20     9    25 1   
    21    10    11 ar  
    22    10    26 1   
    23    11    12 1   
    24    11    13 ar  
    25    13    14 1   
    26    15    16 1   
    27    15    19 ar  
    28    16    17 1   
    29    16    27 1   
    30    17    18 1   
    31    17    28 1   
    32    18    29 1   
    33    18    30 1   
@<TRIPOS>SUBSTRUCTURE
     1 2GE         1 TEMP              0 ****  ****    0 ROOT
