@<TRIPOS>MOLECULE
2GE
   31    33     1     0     0
SMALL
abcg2


@<TRIPOS>ATOM
      1 C13         -1.7100     0.2820     0.2320 ca         1 2GE      -0.325000
      2 C17         -4.4520     2.1270    -0.1350 cx         1 2GE      -0.133900
      3 N01         -1.1370    -3.6160    -0.5900 nv         1 2GE      -1.053900
      4 C02         -1.3330    -2.3010    -0.3400 ca         1 2GE       0.410900
      5 N03         -0.2570    -1.5120    -0.3830 nb         1 2GE      -0.263000
      6 C04         -0.4730    -0.2330    -0.0890 cp         1 2GE       0.230500
      7 C05          0.6990     0.6760    -0.1480 cp         1 2GE      -0.128500
      8 C06          0.6820     1.7420    -1.0410 ca         1 2GE      -0.087000
      9 C07          1.7600     2.6070    -1.1400 ca         1 2GE      -0.107000
     10 C08          2.8730     2.4220    -0.3370 ca         1 2GE      -0.091000
     11 C09          2.8960     1.3720     0.5680 ca         1 2GE       0.110000
     12 CL1          4.2790     1.1670     1.5760 cl         1 2GE      -0.175000
     13 C11          1.8170     0.4980     0.6660 ca         1 2GE       0.149000
     14 CL2          1.8490    -0.7640     1.8350 cl         1 2GE      -0.154000
     15 C14         -2.7770    -0.6380     0.2330 ca         1 2GE       0.424900
     16 N15         -4.0410    -0.2700     0.5110 nu         1 2GE      -0.912100
     17 C16         -4.4210     1.0430     0.9020 cx         1 2GE       0.165500
     18 C18         -5.7290     1.5600     0.4010 cx         1 2GE      -0.133900
     19 N19         -2.5760    -1.9250    -0.0470 nb         1 2GE      -0.332000
     20 H1          -1.8450     1.3250     0.4730 ha         1 2GE       0.138000
     21 H3          -4.1650     1.8570    -1.1430 hc         1 2GE       0.080200
     22 H4          -1.9400    -4.1810    -0.8050 hn         1 2GE       0.489000
     23 H5          -0.2720    -3.8860    -1.0250 hn         1 2GE       0.489000
     24 H6          -0.1850     1.8830    -1.6730 ha         1 2GE       0.124000
     25 H7           1.7390     3.4260    -1.8440 ha         1 2GE       0.122000
     26 H8           3.7210     3.0900    -0.4060 ha         1 2GE       0.131000
     27 H9          -4.7170    -1.0130     0.5900 hn         1 2GE       0.508000
     28 H10         -4.1280     1.3390     1.9070 h1         1 2GE       0.084700
     29 H11         -6.3220     2.1610     1.0770 hc         1 2GE       0.080200
     30 H12         -6.3050     0.9120    -0.2480 hc         1 2GE       0.080200
     31 H2          -4.1570     3.1220     0.1710 hc         1 2GE       0.080200
@<TRIPOS>BOND
     1     1     6 ar  
     2     1    15 ar  
     3     1    20 1   
     4     2    17 1   
     5     2    18 1   
     6     2    21 1   
     7     2    31 1   
     8     3     4 1   
     9     3    22 1   
    10     3    23 1   
    11     4     5 ar  
    12     4    19 ar  
    13     5     6 ar  
    14     6     7 1   
    15     7     8 ar  
    16     7    13 ar  
    17     8     9 ar  
    18     8    24 1   
    19     9    10 ar  
    20     9    25 1   
    21    10    11 ar  
    22    10    26 1   
    23    11    12 1   
    24    11    13 ar  
    25    13    14 1   
    26    15    16 1   
    27    15    19 ar  
    28    16    17 1   
    29    16    27 1   
    30    17    18 1   
    31    17    28 1   
    32    18    29 1   
    33    18    30 1   
@<TRIPOS>SUBSTRUCTURE
     1 2GE         1 TEMP              0 ****  ****    0 ROOT
