@<TRIPOS>MOLECULE
2GG
   44    46     1     0     0
SMALL
bcc


@<TRIPOS>ATOM
      1 C22          2.8380    -1.4770     4.9400 c3         1 2GG       0.124700
      2 O21          1.7340    -1.0570     4.1630 os         1 2GG      -0.315900
      3 C18          1.8280    -1.1210     2.8240 ca         1 2GG       0.156100
      4 C19          0.7170    -0.6730     2.1020 ca         1 2GG      -0.192500
      5 C20          0.7220    -0.7030     0.7230 ca         1 2GG      -0.058500
      6 C17          2.9420    -1.5930     2.1340 ca         1 2GG      -0.192500
      7 C16          2.9330    -1.6130     0.7460 ca         1 2GG      -0.058500
      8 C7           1.8330    -1.1740     0.0190 ca         1 2GG      -0.071000
      9 C3           1.8870    -1.1590    -1.4480 cc         1 2GG      -0.242600
     10 C2           1.0340    -1.7480    -2.4250 cc         1 2GG       0.296800
     11 C8          -0.2080    -2.5520    -2.2070 c          1 2GG       0.589600
     12 O9          -0.6020    -2.7840    -1.0760 o          1 2GG      -0.578100
     13 N10         -0.8040    -2.9840    -3.3220 ns         1 2GG      -0.559900
     14 C26         -2.0500    -3.7240    -3.3100 c3         1 2GG       0.104000
     15 C27         -3.2730    -2.8200    -3.2640 c3         1 2GG      -0.116100
     16 N1           1.4900    -1.5540    -3.6280 nd         1 2GG      -0.364300
     17 C4           2.8710    -0.5990    -2.2100 cd         1 2GG       0.333200
     18 C6           4.0820     0.1470    -1.8930 ca         1 2GG      -0.285500
     19 C11          5.2920    -0.2320    -2.4730 ca         1 2GG      -0.002000
     20 C12          6.4570     0.4430    -2.1890 ca         1 2GG      -0.124600
     21 CL25         7.9550    -0.0540    -2.9060 cl         1 2GG      -0.105400
     22 C13          6.4520     1.5320    -1.3090 ca         1 2GG       0.215100
     23 O24          7.5480     2.2230    -0.9930 oh         1 2GG      -0.479100
     24 C14          5.2490     1.9230    -0.7390 ca         1 2GG      -0.220000
     25 C15          4.0670     1.2520    -1.0260 ca         1 2GG       0.234100
     26 O23          2.9570     1.7320    -0.4540 oh         1 2GG      -0.479100
     27 O3           2.6220    -0.8400    -3.5050 os         1 2GG      -0.090100
     28 H221         3.7320    -0.8840     4.7290 h1         1 2GG       0.042033
     29 H222         3.0700    -2.5340     4.7820 h1         1 2GG       0.042033
     30 H223         2.5580    -1.3320     5.9800 h1         1 2GG       0.042033
     31 H19         -0.1480    -0.2980     2.6340 ha         1 2GG       0.142500
     32 H17          3.8200    -1.9540     2.6520 ha         1 2GG       0.142500
     33 H20         -0.1450    -0.3400     0.1870 ha         1 2GG       0.136000
     34 H16          3.8040    -1.9910     0.2260 ha         1 2GG       0.136000
     35 H10         -0.4220    -2.7150    -4.2150 hn         1 2GG       0.333500
     36 H261        -2.0670    -4.3400    -4.2090 h1         1 2GG       0.055700
     37 H262        -2.0480    -4.4030    -2.4590 h1         1 2GG       0.055700
     38 H271        -3.2790    -2.2140    -2.3580 hc         1 2GG       0.043367
     39 H272        -3.2980    -2.1500    -4.1240 hc         1 2GG       0.043367
     40 H273        -4.1850    -3.4170    -3.2750 hc         1 2GG       0.043367
     41 H11          5.3230    -1.0810    -3.1430 ha         1 2GG       0.157000
     42 H24          8.3250     1.8870    -1.4580 ho         1 2GG       0.446000
     43 H14          5.2320     2.7760    -0.0710 ha         1 2GG       0.172000
     44 H23          2.1640     1.2730    -0.7550 ho         1 2GG       0.448000
@<TRIPOS>BOND
     1     1     2 1   
     2     1    28 1   
     3     1    29 1   
     4     1    30 1   
     5     2     3 1   
     6     3     4 ar  
     7     3     6 ar  
     8     4     5 ar  
     9     4    31 1   
    10     5     8 ar  
    11     5    33 1   
    12     6     7 ar  
    13     6    32 1   
    14     7     8 ar  
    15     7    34 1   
    16     8     9 1   
    17     9    10 1   
    18     9    17 2   
    19    10    11 1   
    20    10    16 2   
    21    11    12 2   
    22    11    13 1   
    23    13    14 1   
    24    13    35 1   
    25    14    15 1   
    26    14    36 1   
    27    14    37 1   
    28    15    38 1   
    29    15    39 1   
    30    15    40 1   
    31    16    27 1   
    32    17    18 1   
    33    17    27 1   
    34    18    19 ar  
    35    18    25 ar  
    36    19    20 ar  
    37    19    41 1   
    38    20    21 1   
    39    20    22 ar  
    40    22    23 1   
    41    22    24 ar  
    42    23    42 1   
    43    24    25 ar  
    44    24    43 1   
    45    25    26 1   
    46    26    44 1   
@<TRIPOS>SUBSTRUCTURE
     1 2GG         1 TEMP              0 ****  ****    0 ROOT
