@<TRIPOS>MOLECULE
2GG
   44    46     1     0     0
SMALL
No Charge or Current Charge


@<TRIPOS>ATOM
      1 C22          2.7040    -1.2030     5.0650 c3         1 2GG       0.147900
      2 O21          1.6060    -0.9950     4.1580 os         1 2GG      -0.339100
      3 C18          1.7460    -1.1230     2.7920 ca         1 2GG       0.156100
      4 C19          0.6180    -0.8960     1.9910 ca         1 2GG      -0.174500
      5 C20          0.6970    -1.0110     0.5930 ca         1 2GG      -0.040500
      6 C17          2.9690    -1.4650     2.1800 ca         1 2GG      -0.174500
      7 C16          3.0490    -1.5770     0.7810 ca         1 2GG      -0.040500
      8 C7           1.9140    -1.3550    -0.0300 ca         1 2GG      -0.071000
      9 C3           2.0290    -1.4680    -1.4930 cc         1 2GG      -0.112000
     10 C2           1.1260    -1.9140    -2.5070 cc         1 2GG       0.231500
     11 C8          -0.1810    -2.6220    -2.2470 c          1 2GG       0.522600
     12 O9          -0.6060    -2.9680    -1.1520 o          1 2GG      -0.578100
     13 N10         -0.8940    -2.9010    -3.4020 ns         1 2GG      -0.492900
     14 C26         -2.2020    -3.5590    -3.4490 c3         1 2GG       0.104000
     15 C27         -3.3450    -2.6000    -3.0730 c3         1 2GG      -0.116100
     16 N1           1.6000    -1.7150    -3.7360 nd         1 2GG      -0.364300
     17 C4           3.0990    -0.9660    -2.1880 cd         1 2GG       0.223500
     18 C6           4.2150    -0.0500    -1.8400 ca         1 2GG      -0.285500
     19 C11          5.4170    -0.1990    -2.5720 ca         1 2GG       0.016000
     20 C12          6.5270     0.6230    -2.3160 ca         1 2GG      -0.033000
     21 Cl25         8.0140     0.3800    -3.2350 cl         1 2GG      -0.197000
     22 C13          6.4430     1.6260    -1.3370 ca         1 2GG       0.215100
     23 O24          7.5080     2.4400    -1.0790 oh         1 2GG      -0.518100
     24 C14          5.2490     1.8110    -0.6350 ca         1 2GG      -0.202000
     25 C15          4.1420     0.9900    -0.8810 ca         1 2GG       0.234100
     26 O23          2.9850     1.2950    -0.2400 oh         1 2GG      -0.518100
     27 O3           2.8840    -1.1150    -3.5320 os         1 2GG      -0.045700
     28 H221         3.5180    -0.4960     4.8590 h1         1 2GG       0.042033
     29 H222         3.0930    -2.2250     4.9780 h1         1 2GG       0.042033
     30 H223         2.3760    -1.0510     6.1000 h1         1 2GG       0.042033
     31 H19         -0.3250    -0.6220     2.4580 ha         1 2GG       0.124500
     32 H17          3.8640    -1.6480     2.7680 ha         1 2GG       0.124500
     33 H20         -0.1870    -0.7910    -0.0010 ha         1 2GG       0.118000
     34 H16          3.9990    -1.8530     0.3280 ha         1 2GG       0.118000
     35 H10         -0.4680    -2.6020    -4.2740 hn         1 2GG       0.333500
     36 H261        -2.3660    -3.9410    -4.4650 h1         1 2GG       0.055700
     37 H262        -2.1990    -4.4170    -2.7630 h1         1 2GG       0.055700
     38 H271        -3.2220    -2.2270    -2.0500 hc         1 2GG       0.043367
     39 H272        -3.3700    -1.7420    -3.7560 hc         1 2GG       0.043367
     40 H273        -4.3100    -3.1170    -3.1360 hc         1 2GG       0.043367
     41 H11          5.5050    -0.9740    -3.3310 ha         1 2GG       0.139000
     42 H24          8.2400     2.1630    -1.6720 ho         1 2GG       0.485000
     43 H14          5.1750     2.6100     0.0970 ha         1 2GG       0.154000
     44 H23          2.3720     0.5420    -0.3580 ho         1 2GG       0.487000
@<TRIPOS>BOND
     1     1     2 1   
     2     1    28 1   
     3     1    29 1   
     4     1    30 1   
     5     2     3 1   
     6     3     4 ar  
     7     3     6 ar  
     8     4     5 ar  
     9     4    31 1   
    10     5     8 ar  
    11     5    33 1   
    12     6     7 ar  
    13     6    32 1   
    14     7     8 ar  
    15     7    34 1   
    16     8     9 1   
    17     9    10 1   
    18     9    17 2   
    19    10    11 1   
    20    10    16 2   
    21    11    12 2   
    22    11    13 1   
    23    13    14 1   
    24    13    35 1   
    25    14    15 1   
    26    14    36 1   
    27    14    37 1   
    28    15    38 1   
    29    15    39 1   
    30    15    40 1   
    31    16    27 1   
    32    17    18 1   
    33    17    27 1   
    34    18    19 ar  
    35    18    25 ar  
    36    19    20 ar  
    37    19    41 1   
    38    20    21 1   
    39    20    22 ar  
    40    22    23 1   
    41    22    24 ar  
    42    23    42 1   
    43    24    25 ar  
    44    24    43 1   
    45    25    26 1   
    46    26    44 1   
@<TRIPOS>SUBSTRUCTURE
     1 2GG         1 TEMP              0 ****  ****    0 ROOT
