@<TRIPOS>MOLECULE
2GH
   51    50     1     0     0
SMALL
abcg2


@<TRIPOS>ATOM
      1 OAH         -8.4400    23.5900   -21.2300 o          1 2GH      -0.900833
      2 PAX         -7.3640    23.7300   -22.2910 p5         1 2GH       1.294900
      3 OAI         -6.5210    24.9930   -22.2040 o          1 2GH      -0.900833
      4 OAF         -7.8660    23.4570   -23.7240 o          1 2GH      -0.900833
      5 OAS         -6.3520    22.4480   -21.9350 os         1 2GH      -0.601400
      6 CAP         -5.2920    22.1230   -22.8220 c3         1 2GH       0.245600
      7 CAW         -5.3370    20.6440   -23.2430 c3         1 2GH      -0.092000
      8 CAB         -5.0960    19.7700   -22.0080 c3         1 2GH      -0.071600
      9 CAC         -4.2260    20.4150   -24.2730 c3         1 2GH      -0.071600
     10 CAV         -6.7420    20.3670   -23.8690 c3         1 2GH       0.142300
     11 OAG         -7.0650    21.3050   -24.8750 oh         1 2GH      -0.811000
     12 CAU         -6.8420    18.9570   -24.4480 c          1 2GH       0.589100
     13 OAE         -6.8620    17.9540   -23.7270 o          1 2GH      -0.664100
     14 NAR         -6.9020    18.8970   -25.7870 ns         1 2GH      -0.510900
     15 CAN         -6.9300    17.6540   -26.5270 c3         1 2GH       0.120000
     16 CAO         -5.5200    17.1120   -26.8020 c3         1 2GH      -0.182400
     17 CAT         -5.5830    15.7640   -27.4900 c          1 2GH       0.594100
     18 OAD         -6.1160    14.7910   -26.9470 o          1 2GH      -0.620100
     19 NAQ         -5.0470    15.7030   -28.7200 ns         1 2GH      -0.520900
     20 CAM         -5.0360    14.4870   -29.5250 c3         1 2GH       0.109000
     21 CAL         -4.6310    14.7740   -30.9650 c3         1 2GH      -0.093400
     22 CAK         -3.1890    15.2510   -31.1350 c3         1 2GH      -0.078400
     23 CAJ         -2.8120    15.4870   -32.5960 c3         1 2GH      -0.076400
     24 CAA         -1.3760    15.9750   -32.7710 c3         1 2GH      -0.089100
     25 H3          -4.3350    22.3050   -22.3190 h1         1 2GH       0.003700
     26 H4          -5.3230    22.7580   -23.7100 h1         1 2GH       0.003700
     27 H5          -4.1370    20.0350   -21.5550 hc         1 2GH       0.018867
     28 H6          -5.8780    19.9230   -21.2620 hc         1 2GH       0.018867
     29 H7          -5.0770    18.7140   -22.2670 hc         1 2GH       0.018867
     30 H8          -3.2630    20.7390   -23.8720 hc         1 2GH       0.018867
     31 H9          -4.1400    19.3570   -24.5290 hc         1 2GH       0.018867
     32 H10         -4.4200    20.9750   -25.1890 hc         1 2GH       0.018867
     33 H11         -7.4730    20.4150   -23.0560 h1         1 2GH       0.084700
     34 H12         -7.3860    22.1580   -24.4280 ho         1 2GH       0.569000
     35 H13         -6.9030    19.7800   -26.2760 hn         1 2GH       0.351500
     36 H14         -7.4510    17.8300   -27.4680 h1         1 2GH       0.048200
     37 H15         -7.4950    16.9200   -25.9540 h1         1 2GH       0.048200
     38 H16         -5.0040    16.9740   -25.8490 hc         1 2GH       0.068200
     39 H17         -4.9550    17.8340   -27.3930 hc         1 2GH       0.068200
     40 H18         -4.6170    16.5320   -29.0950 hn         1 2GH       0.312500
     41 H19         -6.0330    14.0460   -29.4930 h1         1 2GH       0.046200
     42 H20         -4.3490    13.7600   -29.0800 h1         1 2GH       0.046200
     43 H21         -5.3180    15.5150   -31.3900 hc         1 2GH       0.042700
     44 H22         -4.7740    13.8530   -31.5370 hc         1 2GH       0.042700
     45 H23         -2.5120    14.5090   -30.6980 hc         1 2GH       0.041200
     46 H24         -3.0270    16.1800   -30.5770 hc         1 2GH       0.041200
     47 H25         -3.5030    16.2170   -33.0300 hc         1 2GH       0.034200
     48 H26         -2.9540    14.5570   -33.1570 hc         1 2GH       0.034200
     49 H27         -1.1340    16.1340   -33.8240 hc         1 2GH       0.030700
     50 H28         -1.2160    16.9200   -32.2450 hc         1 2GH       0.030700
     51 H29         -0.6640    15.2480   -32.3700 hc         1 2GH       0.030700
@<TRIPOS>BOND
     1     1     2 1   
     2     2     3 1   
     3     2     4 1   
     4     2     5 1   
     5     5     6 1   
     6     6     7 1   
     7     6    25 1   
     8     6    26 1   
     9     7     8 1   
    10     7     9 1   
    11     7    10 1   
    12     8    27 1   
    13     8    28 1   
    14     8    29 1   
    15     9    30 1   
    16     9    31 1   
    17     9    32 1   
    18    10    11 1   
    19    10    12 1   
    20    10    33 1   
    21    11    34 1   
    22    12    13 2   
    23    12    14 1   
    24    14    15 1   
    25    14    35 1   
    26    15    16 1   
    27    15    36 1   
    28    15    37 1   
    29    16    17 1   
    30    16    38 1   
    31    16    39 1   
    32    17    18 2   
    33    17    19 1   
    34    19    20 1   
    35    19    40 1   
    36    20    21 1   
    37    20    41 1   
    38    20    42 1   
    39    21    22 1   
    40    21    43 1   
    41    21    44 1   
    42    22    23 1   
    43    22    45 1   
    44    22    46 1   
    45    23    24 1   
    46    23    47 1   
    47    23    48 1   
    48    24    49 1   
    49    24    50 1   
    50    24    51 1   
@<TRIPOS>SUBSTRUCTURE
     1 2GH         1 TEMP              0 ****  ****    0 ROOT
