@<TRIPOS>MOLECULE
2GH
   51    50     1     0     0
SMALL
No Charge or Current Charge


@<TRIPOS>ATOM
      1 OAH         -7.9480    23.2750   -20.5760 o          1 2GH      -0.900833
      2 PAX         -7.2720    23.4000   -21.8950 p5         1 2GH       1.294900
      3 OAI         -6.8500    24.8100   -22.1110 o          1 2GH      -0.900833
      4 OAF         -8.1980    22.9660   -22.9760 o          1 2GH      -0.900833
      5 OAS         -5.9780    22.4460   -21.9060 os         1 2GH      -0.601400
      6 CAP         -5.2110    22.3090   -23.1120 c3         1 2GH       0.245600
      7 CAW         -5.2300    20.8250   -23.6110 c3         1 2GH      -0.092000
      8 CAB         -4.4600    19.9490   -22.5790 c3         1 2GH      -0.071600
      9 CAC         -4.4570    20.7660   -24.9620 c3         1 2GH      -0.071600
     10 CAV         -6.7020    20.2890   -23.7870 c3         1 2GH       0.142300
     11 OAG         -7.4790    21.2060   -24.6120 oh         1 2GH      -0.811000
     12 CAU         -6.7760    18.8100   -24.3170 c          1 2GH       0.589100
     13 OAE         -6.6700    17.8200   -23.6000 o          1 2GH      -0.664100
     14 NAR         -7.0520    18.7010   -25.6630 ns         1 2GH      -0.510900
     15 CAN         -7.1340    17.4530   -26.4190 c3         1 2GH       0.120000
     16 CAO         -5.7400    16.8830   -26.7320 c3         1 2GH      -0.182400
     17 CAT         -5.8580    15.6110   -27.5680 c          1 2GH       0.594100
     18 OAD         -6.2230    14.5440   -27.0960 o          1 2GH      -0.620100
     19 NAQ         -5.4880    15.7430   -28.8850 ns         1 2GH      -0.520900
     20 CAM         -5.4950    14.6520   -29.8610 c3         1 2GH       0.109000
     21 CAL         -4.7140    15.0100   -31.1420 c3         1 2GH      -0.093400
     22 CAK         -3.2050    15.2580   -30.9080 c3         1 2GH      -0.078400
     23 CAJ         -2.4370    15.5750   -32.2100 c3         1 2GH      -0.076400
     24 CAA         -0.9340    15.8220   -31.9790 c3         1 2GH      -0.089100
     25 H3          -4.1730    22.6160   -22.9260 h1         1 2GH       0.003700
     26 H4          -5.5960    22.9660   -23.9040 h1         1 2GH       0.003700
     27 H5          -3.4690    20.3710   -22.3710 hc         1 2GH       0.018867
     28 H6          -5.0040    19.8850   -21.6290 hc         1 2GH       0.018867
     29 H7          -4.3080    18.9300   -22.9520 hc         1 2GH       0.018867
     30 H8          -3.4400    21.1600   -24.8440 hc         1 2GH       0.018867
     31 H9          -4.3720    19.7380   -25.3310 hc         1 2GH       0.018867
     32 H10         -4.9580    21.3640   -25.7330 hc         1 2GH       0.018867
     33 H11         -7.1570    20.2440   -22.7870 h1         1 2GH       0.084700
     34 H12         -7.7830    21.9480   -23.9700 ho         1 2GH       0.569000
     35 H13         -7.2010    19.5870   -26.1350 hn         1 2GH       0.351500
     36 H14         -7.6690    17.6520   -27.3580 h1         1 2GH       0.048200
     37 H15         -7.7190    16.7210   -25.8450 h1         1 2GH       0.048200
     38 H16         -5.2410    16.6390   -25.7880 hc         1 2GH       0.068200
     39 H17         -5.1660    17.6420   -27.2750 hc         1 2GH       0.068200
     40 H18         -5.1900    16.6620   -29.1890 hn         1 2GH       0.312500
     41 H19         -6.5370    14.4240   -30.1210 h1         1 2GH       0.046200
     42 H20         -5.0540    13.7560   -29.4040 h1         1 2GH       0.046200
     43 H21         -5.1650    15.8980   -31.6020 hc         1 2GH       0.042700
     44 H22         -4.8330    14.1890   -31.8590 hc         1 2GH       0.042700
     45 H23         -2.7640    14.3710   -30.4360 hc         1 2GH       0.041200
     46 H24         -3.0740    16.0910   -30.2060 hc         1 2GH       0.041200
     47 H25         -2.8760    16.4620   -32.6840 hc         1 2GH       0.034200
     48 H26         -2.5570    14.7430   -32.9150 hc         1 2GH       0.034200
     49 H27         -0.4330    16.0420   -32.9290 hc         1 2GH       0.030700
     50 H28         -0.7800    16.6730   -31.3040 hc         1 2GH       0.030700
     51 H29         -0.4590    14.9380   -31.5370 hc         1 2GH       0.030700
@<TRIPOS>BOND
     1     1     2 1   
     2     2     3 1   
     3     2     4 1   
     4     2     5 1   
     5     5     6 1   
     6     6     7 1   
     7     6    25 1   
     8     6    26 1   
     9     7     8 1   
    10     7     9 1   
    11     7    10 1   
    12     8    27 1   
    13     8    28 1   
    14     8    29 1   
    15     9    30 1   
    16     9    31 1   
    17     9    32 1   
    18    10    11 1   
    19    10    12 1   
    20    10    33 1   
    21    11    34 1   
    22    12    13 2   
    23    12    14 1   
    24    14    15 1   
    25    14    35 1   
    26    15    16 1   
    27    15    36 1   
    28    15    37 1   
    29    16    17 1   
    30    16    38 1   
    31    16    39 1   
    32    17    18 2   
    33    17    19 1   
    34    19    20 1   
    35    19    40 1   
    36    20    21 1   
    37    20    41 1   
    38    20    42 1   
    39    21    22 1   
    40    21    43 1   
    41    21    44 1   
    42    22    23 1   
    43    22    45 1   
    44    22    46 1   
    45    23    24 1   
    46    23    47 1   
    47    23    48 1   
    48    24    49 1   
    49    24    50 1   
    50    24    51 1   
@<TRIPOS>SUBSTRUCTURE
     1 2GH         1 TEMP              0 ****  ****    0 ROOT
