@<TRIPOS>MOLECULE
2GI
   60    64     1     0     0
SMALL
bcc


@<TRIPOS>ATOM
      1 C02         85.3530     6.7290     4.3920 ca         1 2GI       0.794200
      2 C03         86.1330     7.7230     5.0370 ca         1 2GI      -0.504500
      3 C04         86.1230     8.9830     4.4340 ca         1 2GI       0.489800
      4 C06         87.2030    11.1800     4.9770 c6         1 2GI       0.052000
      5 C07         88.7030    11.4410     4.8710 c6         1 2GI      -0.085400
      6 C08         88.9780    12.9360     4.7340 c6         1 2GI      -0.101400
      7 C09         88.2880    13.7210     5.8440 c6         1 2GI       0.088000
      8 C12         84.5250    13.8440     5.2290 c3         1 2GI      -0.156400
      9 C13         83.6030    14.9200     4.6810 c3         1 2GI      -0.076100
     10 C15         86.5870    12.0220     6.1000 c6         1 2GI       0.085000
     11 C17         86.9770     7.8840     6.1700 cc         1 2GI       0.365900
     12 C18         87.3680     6.9290     7.1860 cc         1 2GI       0.273000
     13 C19         88.1550     7.1200     8.2970 cd         1 2GI      -0.205600
     14 C22         90.3430     5.0790     9.7210 c3         1 2GI      -0.048100
     15 C23         91.1050     4.7310    10.9700 ca         1 2GI      -0.094300
     16 C24         91.1740     3.4160    11.4210 ca         1 2GI      -0.121000
     17 C25         91.8510     3.1020    12.5930 ca         1 2GI      -0.125000
     18 C26         92.4650     4.1050    13.3320 ca         1 2GI      -0.121000
     19 C27         92.3980     5.4210    12.8920 ca         1 2GI      -0.125000
     20 C28         91.7230     5.7290    11.7200 ca         1 2GI      -0.121000
     21 C32         84.7690     8.3160     2.8330 ca         1 2GI       0.728900
     22 N01         85.2610     5.4820     4.8350 nv         1 2GI      -0.950500
     23 N05         86.9150     9.7780     5.1800 na         1 2GI       0.011200
     24 N10         86.8640    13.4210     5.8560 n          1 2GI      -0.476800
     25 N16         87.4240     9.1170     6.2270 nd         1 2GI      -0.543100
     26 N20         88.1800     5.9170     8.8880 na         1 2GI       0.107400
     27 N29         87.4760     5.0340     8.2070 nd         1 2GI      -0.192800
     28 N30         86.9790     5.6350     7.1830 nc         1 2GI      -0.391000
     29 N31         85.4530     9.3270     3.3300 nb         1 2GI      -0.776000
     30 N33         84.6810     7.0680     3.2850 nb         1 2GI      -0.846000
     31 O14         86.2970    15.4310     5.0100 o          1 2GI      -0.597100
     32 H1          86.7170    11.4510     4.0370 h1         1 2GI       0.092700
     33 H2          89.1150    10.8930     4.0210 hc         1 2GI       0.058700
     34 H3          89.1970    11.0630     5.7710 hc         1 2GI       0.058700
     35 H4          90.0530    13.1190     4.7700 hc         1 2GI       0.055200
     36 H5          88.6250    13.2990     3.7650 hc         1 2GI       0.055200
     37 H6          88.7050    13.4390     6.8160 h1         1 2GI       0.064200
     38 H7          88.4330    14.7900     5.7220 h1         1 2GI       0.064200
     39 H8          84.4810    12.9580     4.5880 hc         1 2GI       0.059200
     40 H9          84.1670    13.5160     6.2090 hc         1 2GI       0.059200
     41 H10         82.5870    14.5320     4.6130 hc         1 2GI       0.042033
     42 H11         83.5790    15.7980     5.3250 hc         1 2GI       0.042033
     43 H12         83.9030    15.2420     3.6850 hc         1 2GI       0.042033
     44 H13         85.5190    11.8340     6.1760 h1         1 2GI       0.065200
     45 H14         87.0320    11.7380     7.0570 h1         1 2GI       0.065200
     46 H15         88.6650     7.9820     8.6920 h4         1 2GI       0.199000
     47 H16         88.9390     6.3750    10.7470 h1         1 2GI       0.077200
     48 H17         88.3700     4.7190    10.5530 h1         1 2GI       0.077200
     49 H18         90.2970     4.2180     9.0510 hc         1 2GI       0.064700
     50 H19         90.8480     5.8850     9.1840 hc         1 2GI       0.064700
     51 H20         90.7000     2.6280    10.8470 ha         1 2GI       0.130500
     52 H21         91.9010     2.0740    12.9260 ha         1 2GI       0.134500
     53 H22         92.9940     3.8620    14.2450 ha         1 2GI       0.134000
     54 H23         92.8770     6.2080    13.4610 ha         1 2GI       0.134500
     55 H24         91.6770     6.7580    11.3800 ha         1 2GI       0.130500
     56 H25         84.1980     8.5240     1.9330 h5         1 2GI       0.044100
     57 H26         84.6890     4.8200     4.3390 hn         1 2GI       0.465800
     58 H27         85.7600     5.1930     5.6710 hn         1 2GI       0.465800
     59 C11         85.9670    14.3030     5.3460 c          1 2GI       0.670100
     60 C21         88.9240     5.5220    10.0700 c3         1 2GI       0.047300
@<TRIPOS>BOND
     1     1     2 ar  
     2     1    22 1   
     3     1    30 ar  
     4     2     3 ar  
     5     2    11 1   
     6     3    23 1   
     7     3    29 ar  
     8     4     5 1   
     9     4    10 1   
    10     4    23 1   
    11     4    32 1   
    12     5     6 1   
    13     5    33 1   
    14     5    34 1   
    15     6     7 1   
    16     6    35 1   
    17     6    36 1   
    18     7    24 1   
    19     7    37 1   
    20     7    38 1   
    21     8     9 1   
    22     8    39 1   
    23     8    40 1   
    24     8    59 1   
    25     9    41 1   
    26     9    42 1   
    27     9    43 1   
    28    10    24 1   
    29    10    44 1   
    30    10    45 1   
    31    11    12 1   
    32    11    25 2   
    33    12    13 2   
    34    12    28 1   
    35    13    26 1   
    36    13    46 1   
    37    14    15 1   
    38    14    49 1   
    39    14    50 1   
    40    14    60 1   
    41    15    16 ar  
    42    15    20 ar  
    43    16    17 ar  
    44    16    51 1   
    45    17    18 ar  
    46    17    52 1   
    47    18    19 ar  
    48    18    53 1   
    49    19    20 ar  
    50    19    54 1   
    51    20    55 1   
    52    21    29 ar  
    53    21    30 ar  
    54    21    56 1   
    55    22    57 1   
    56    22    58 1   
    57    23    25 1   
    58    24    59 1   
    59    26    27 1   
    60    26    60 1   
    61    27    28 2   
    62    31    59 2   
    63    47    60 1   
    64    48    60 1   
@<TRIPOS>SUBSTRUCTURE
     1 2GI         1 TEMP              0 ****  ****    0 ROOT
