@<TRIPOS>MOLECULE
2GI
   60    64     1     0     0
SMALL
No Charge or Current Charge


@<TRIPOS>ATOM
      1 C02         85.4880     6.6000     4.1570 ca         1 2GI       0.465900
      2 C03         86.1860     7.6280     4.8010 ca         1 2GI      -0.373900
      3 C04         86.1940     8.8680     4.2150 ca         1 2GI       0.161500
      4 C06         87.1800    11.1080     4.8050 c6         1 2GI       0.081300
      5 C07         88.6700    11.3610     4.4500 c6         1 2GI      -0.085400
      6 C08         88.9380    12.8730     4.2380 c6         1 2GI      -0.101400
      7 C09         88.4550    13.7000     5.4550 c6         1 2GI       0.088000
      8 C12         84.5440    14.0340     5.8310 c3         1 2GI      -0.156400
      9 C13         83.5140    15.1770     5.6740 c3         1 2GI      -0.076100
     10 C15         86.7540    11.9830     6.0130 c6         1 2GI       0.085000
     11 C17         86.9700     7.7460     6.0340 cc         1 2GI       0.365900
     12 C18         87.2950     6.7100     7.0110 cc         1 2GI       0.207700
     13 C19         88.0370     6.9810     8.1230 cd         1 2GI      -0.173000
     14 C22         90.3240     5.2000     9.8260 c3         1 2GI      -0.048100
     15 C23         91.0170     4.8890    11.1450 ca         1 2GI      -0.094300
     16 C24         91.1040     3.5610    11.6060 ca         1 2GI      -0.103000
     17 C25         91.7380     3.2740    12.8270 ca         1 2GI      -0.107000
     18 C26         92.2880     4.3140    13.5960 ca         1 2GI      -0.103000
     19 C27         92.2020     5.6410    13.1420 ca         1 2GI      -0.107000
     20 C28         91.5680     5.9280    11.9200 ca         1 2GI      -0.103000
     21 C32         84.9340     8.0680     2.4900 ca         1 2GI       0.202900
     22 N01         85.3580     5.3470     4.6240 nv         1 2GI      -1.060900
     23 N05         86.9260     9.6680     5.0650 na         1 2GI      -0.018100
     24 N10         87.0200    13.4270     5.7400 n          1 2GI      -0.409800
     25 N16         87.4090     9.0090     6.1840 nd         1 2GI      -0.543100
     26 N20         88.1200     5.7640     8.7580 na         1 2GI       0.128800
     27 N29         87.4520     4.8030     8.0420 nd         1 2GI      -0.192800
     28 N30         86.9530     5.3840     6.9810 nc         1 2GI      -0.391000
     29 N31         85.5710     9.1200     3.0480 nb         1 2GI      -0.250000
     30 N33         84.8600     6.8150     2.9930 nb         1 2GI      -0.320000
     31 O14         86.3050    15.5210     5.1280 o          1 2GI      -0.597100
     32 H1          86.5690    11.4160     3.9450 h1         1 2GI       0.092700
     33 H2          88.9420    10.8010     3.5450 hc         1 2GI       0.058700
     34 H3          89.3160    10.9850     5.2570 hc         1 2GI       0.058700
     35 H4          90.0100    13.0460     4.0710 hc         1 2GI       0.055200
     36 H5          88.4200    13.2180     3.3330 hc         1 2GI       0.055200
     37 H6          89.0520    13.4320     6.3390 h1         1 2GI       0.064200
     38 H7          88.6270    14.7680     5.2650 h1         1 2GI       0.064200
     39 H8          84.2750    13.1740     5.2060 hc         1 2GI       0.059200
     40 H9          84.5030    13.5970     6.8350 hc         1 2GI       0.059200
     41 H10         82.5060    14.8180     5.9140 hc         1 2GI       0.042033
     42 H11         83.7510    16.0080     6.3480 hc         1 2GI       0.042033
     43 H12         83.5060    15.5540     4.6440 hc         1 2GI       0.042033
     44 H13         85.6990    11.7910     6.2440 h1         1 2GI       0.065200
     45 H14         87.3290    11.6840     6.9010 h1         1 2GI       0.065200
     46 H15         88.4880     7.8950     8.4870 h4         1 2GI       0.181000
     47 H16         88.6710     6.2950    10.7060 h1         1 2GI       0.077200
     48 H17         88.3490     4.5690    10.4670 h1         1 2GI       0.077200
     49 H18         90.4620     4.3700     9.1210 hc         1 2GI       0.064700
     50 H19         90.7810     6.0800     9.3560 hc         1 2GI       0.064700
     51 H20         90.6790     2.7490    11.0190 ha         1 2GI       0.112500
     52 H21         91.8030     2.2460    13.1780 ha         1 2GI       0.116500
     53 H22         92.7780     4.0930    14.5410 ha         1 2GI       0.116000
     54 H23         92.6270     6.4480    13.7360 ha         1 2GI       0.116500
     55 H24         91.5050     6.9590    11.5780 ha         1 2GI       0.112500
     56 H25         84.4250     8.2480     1.5450 h5         1 2GI       0.044100
     57 H26         85.0590     4.6210     3.9810 hn         1 2GI       0.521000
     58 H27         85.9370     5.0620     5.4120 hn         1 2GI       0.521000
     59 C11         86.0120    14.4000     5.5260 c          1 2GI       0.603100
     60 C21         88.8150     5.4550    10.0160 c3         1 2GI       0.076600
@<TRIPOS>BOND
     1     1     2 ar  
     2     1    22 1   
     3     1    30 ar  
     4     2     3 ar  
     5     2    11 1   
     6     3    23 1   
     7     3    29 ar  
     8     4     5 1   
     9     4    10 1   
    10     4    23 1   
    11     4    32 1   
    12     5     6 1   
    13     5    33 1   
    14     5    34 1   
    15     6     7 1   
    16     6    35 1   
    17     6    36 1   
    18     7    24 1   
    19     7    37 1   
    20     7    38 1   
    21     8     9 1   
    22     8    39 1   
    23     8    40 1   
    24     8    59 1   
    25     9    41 1   
    26     9    42 1   
    27     9    43 1   
    28    10    24 1   
    29    10    44 1   
    30    10    45 1   
    31    11    12 1   
    32    11    25 2   
    33    12    13 2   
    34    12    28 1   
    35    13    26 1   
    36    13    46 1   
    37    14    15 1   
    38    14    49 1   
    39    14    50 1   
    40    14    60 1   
    41    15    16 ar  
    42    15    20 ar  
    43    16    17 ar  
    44    16    51 1   
    45    17    18 ar  
    46    17    52 1   
    47    18    19 ar  
    48    18    53 1   
    49    19    20 ar  
    50    19    54 1   
    51    20    55 1   
    52    21    29 ar  
    53    21    30 ar  
    54    21    56 1   
    55    22    57 1   
    56    22    58 1   
    57    23    25 1   
    58    24    59 1   
    59    26    27 1   
    60    26    60 1   
    61    27    28 2   
    62    31    59 2   
    63    47    60 1   
    64    48    60 1   
@<TRIPOS>SUBSTRUCTURE
     1 2GI         1 TEMP              0 ****  ****    0 ROOT
