@<TRIPOS>MOLECULE
2GJ
   65    68     1     0     0
SMALL
abcg2


@<TRIPOS>ATOM
      1 C25         36.4400     5.1220    21.5630 c6         1 2GJ       0.124800
      2 C26         36.1280     3.7980    20.8900 c6         1 2GJ       0.153600
      3 O27         36.1000     2.7390    21.8210 os         1 2GJ      -0.451000
      4 C28         35.1560     2.9910    22.8380 c6         1 2GJ       0.153600
      5 C29         35.4410     4.2950    23.5570 c6         1 2GJ       0.124800
      6 N24         35.4670     5.3910    22.6050 n3         1 2GJ      -0.716600
      7 C23         35.7070     6.6660    23.2460 c3         1 2GJ       0.214100
      8 C20         34.5630     7.0960    24.1250 ca         1 2GJ      -0.082300
      9 C21         33.2520     7.0420    23.6570 ca         1 2GJ      -0.102000
     10 C22         32.2020     7.4910    24.4390 ca         1 2GJ      -0.087500
     11 C19         34.7900     7.5940    25.4020 ca         1 2GJ      -0.102000
     12 C18         33.7410     8.0470    26.1890 ca         1 2GJ      -0.087500
     13 C7          32.4360     8.0090    25.7120 ca         1 2GJ      -0.004000
     14 C3          31.3290     8.5560    26.5060 cc         1 2GJ      -0.129000
     15 C2          30.8480     8.1430    27.7760 cc         1 2GJ       0.238500
     16 C8          31.3450     7.0030    28.6040 c          1 2GJ       0.521600
     17 O9          31.9190     6.0670    28.0730 o          1 2GJ      -0.573100
     18 N10         31.0950     7.1060    29.9130 ns         1 2GJ      -0.493900
     19 C11         31.5260     6.1150    30.8790 c3         1 2GJ       0.104000
     20 C12         32.9540     6.3380    31.3540 c3         1 2GJ      -0.117100
     21 N1          29.8330     8.8560    28.1690 nd         1 2GJ      -0.359300
     22 O5          29.6260     9.7730    27.1930 os         1 2GJ      -0.093700
     23 C4          30.5120     9.6070    26.1960 cd         1 2GJ       0.264500
     24 C6          30.4530    10.5290    25.0760 ca         1 2GJ      -0.294500
     25 C13         31.6320    10.8160    24.3790 ca         1 2GJ       0.007000
     26 C14         31.6920    11.6490    23.2810 ca         1 2GJ      -0.208300
     27 C30         33.0010    11.9630    22.5870 c3         1 2GJ      -0.004400
     28 C32         33.5840    13.2800    23.1070 c3         1 2GJ      -0.090100
     29 C31         34.0320    10.8430    22.6940 c3         1 2GJ      -0.090100
     30 C15         30.4850    12.2440    22.8720 ca         1 2GJ       0.206100
     31 O34         30.4020    13.0890    21.8310 oh         1 2GJ      -0.530100
     32 C16         29.2980    11.9890    23.5450 ca         1 2GJ      -0.207000
     33 C17         29.2640    11.1420    24.6450 ca         1 2GJ       0.228100
     34 O33         28.0590    10.9560    25.2070 oh         1 2GJ      -0.528100
     35 H251        37.4710     5.0990    21.9570 h1         1 2GJ       0.043450
     36 H252        36.4000     5.9170    20.8140 h1         1 2GJ       0.043450
     37 H261        35.1650     3.8750    20.3660 h1         1 2GJ       0.051200
     38 H262        36.8950     3.5650    20.1500 h1         1 2GJ       0.051200
     39 H281        34.1400     3.0250    22.4190 h1         1 2GJ       0.051200
     40 H282        35.2020     2.1580    23.5410 h1         1 2GJ       0.051200
     41 H291        34.6520     4.4650    24.2930 h1         1 2GJ       0.043450
     42 H292        36.3920     4.2180    24.1120 h1         1 2GJ       0.043450
     43 H231        36.6410     6.6680    23.8330 h1         1 2GJ       0.037700
     44 H232        35.8400     7.4150    22.4580 h1         1 2GJ       0.037700
     45 H21         33.0530     6.6390    22.6710 ha         1 2GJ       0.119500
     46 H19         35.8020     7.6350    25.7880 ha         1 2GJ       0.119500
     47 H22         31.1900     7.4470    24.0560 ha         1 2GJ       0.117000
     48 H18         33.9450     8.4470    27.1750 ha         1 2GJ       0.117000
     49 H10         30.6720     7.9520    30.2610 hn         1 2GJ       0.330500
     50 H111        30.8350     6.1650    31.7190 h1         1 2GJ       0.056200
     51 H112        31.4210     5.1240    30.4380 h1         1 2GJ       0.056200
     52 H121        33.6600     6.2630    30.5270 hc         1 2GJ       0.043033
     53 H122        33.0660     7.3200    31.8130 hc         1 2GJ       0.043033
     54 H123        33.2240     5.5870    32.0970 hc         1 2GJ       0.043033
     55 H13         32.5460    10.3620    24.7340 ha         1 2GJ       0.129000
     56 H30         32.8070    12.0800    21.5130 hc         1 2GJ       0.035700
     57 H321        33.8540    13.1870    24.1610 hc         1 2GJ       0.038867
     58 H322        34.4830    13.5540    22.5520 hc         1 2GJ       0.038867
     59 H323        32.8780    14.1070    23.0200 hc         1 2GJ       0.038867
     60 H311        34.9020    11.0850    22.0830 hc         1 2GJ       0.038867
     61 H312        34.3870    10.7070    23.7170 hc         1 2GJ       0.038867
     62 H313        33.6330     9.8870    22.3520 hc         1 2GJ       0.038867
     63 H34         31.2460    13.1720    21.3740 ho         1 2GJ       0.474000
     64 H16         28.3820    12.4590    23.2100 ha         1 2GJ       0.149000
     65 H33         28.1040    10.4190    26.0060 ho         1 2GJ       0.489000
@<TRIPOS>BOND
     1     1     2 1   
     2     1     6 1   
     3     1    35 1   
     4     1    36 1   
     5     2     3 1   
     6     2    37 1   
     7     2    38 1   
     8     3     4 1   
     9     4     5 1   
    10     4    39 1   
    11     4    40 1   
    12     5     6 1   
    13     5    41 1   
    14     5    42 1   
    15     6     7 1   
    16     7     8 1   
    17     7    43 1   
    18     7    44 1   
    19     8     9 ar  
    20     8    11 ar  
    21     9    10 ar  
    22     9    45 1   
    23    10    13 ar  
    24    10    47 1   
    25    11    12 ar  
    26    11    46 1   
    27    12    13 ar  
    28    12    48 1   
    29    13    14 1   
    30    14    15 1   
    31    14    23 2   
    32    15    16 1   
    33    15    21 2   
    34    16    17 2   
    35    16    18 1   
    36    18    19 1   
    37    18    49 1   
    38    19    20 1   
    39    19    50 1   
    40    19    51 1   
    41    20    52 1   
    42    20    53 1   
    43    20    54 1   
    44    21    22 1   
    45    22    23 1   
    46    23    24 1   
    47    24    25 ar  
    48    24    33 ar  
    49    25    26 ar  
    50    25    55 1   
    51    26    27 1   
    52    26    30 ar  
    53    27    28 1   
    54    27    29 1   
    55    27    56 1   
    56    28    57 1   
    57    28    58 1   
    58    28    59 1   
    59    29    60 1   
    60    29    61 1   
    61    29    62 1   
    62    30    31 1   
    63    30    32 ar  
    64    31    63 1   
    65    32    33 ar  
    66    32    64 1   
    67    33    34 1   
    68    34    65 1   
@<TRIPOS>SUBSTRUCTURE
     1 2GJ         1 TEMP              0 ****  ****    0 ROOT
