@<TRIPOS>MOLECULE
2GJ
   65    68     1     0     0
SMALL
No Charge or Current Charge


@<TRIPOS>ATOM
      1 C25         36.4720     5.0640    21.4320 c6         1 2GJ       0.124800
      2 C26         36.3090     3.6050    20.9090 c6         1 2GJ       0.153600
      3 O27         36.3390     2.6690    22.0140 os         1 2GJ      -0.451000
      4 C28         35.3040     2.9290    22.9930 c6         1 2GJ       0.153600
      5 C29         35.4430     4.3730    23.5600 c6         1 2GJ       0.124800
      6 N24         35.4480     5.4000    22.4680 n3         1 2GJ      -0.716600
      7 C23         35.5740     6.7900    22.9680 c3         1 2GJ       0.214100
      8 C20         34.4370     7.2070    23.8960 ca         1 2GJ      -0.082300
      9 C21         33.1370     7.3780    23.3880 ca         1 2GJ      -0.102000
     10 C22         32.0900     7.7740    24.2360 ca         1 2GJ      -0.087500
     11 C19         34.6740     7.4340    25.2640 ca         1 2GJ      -0.102000
     12 C18         33.6240     7.8260    26.1130 ca         1 2GJ      -0.087500
     13 C7          32.3190     8.0010    25.6100 ca         1 2GJ      -0.004000
     14 C3          31.2140     8.4440    26.4740 cc         1 2GJ      -0.129000
     15 C2          30.8920     8.1830    27.8380 cc         1 2GJ       0.238500
     16 C8          31.5440     7.1160    28.6820 c          1 2GJ       0.521600
     17 O9          32.3730     6.3010    28.2950 o          1 2GJ      -0.573100
     18 N10         31.0920     7.0970    29.9920 ns         1 2GJ      -0.493900
     19 C11         31.5670     6.1860    31.0360 c3         1 2GJ       0.104000
     20 C12         32.9340     6.6140    31.5990 c3         1 2GJ      -0.117100
     21 N1          29.8890     8.9400    28.2810 nd         1 2GJ      -0.359300
     22 O5          29.5340     9.7530    27.1590 os         1 2GJ      -0.093700
     23 C4          30.3510     9.4420    26.1040 cd         1 2GJ       0.264500
     24 C6          30.3780    10.4330    24.9970 ca         1 2GJ      -0.294500
     25 C13         31.6030    10.7950    24.3920 ca         1 2GJ       0.007000
     26 C14         31.6650    11.7170    23.3260 ca         1 2GJ      -0.208300
     27 C30         33.0350    12.0540    22.7080 c3         1 2GJ      -0.004400
     28 C32         33.8810    12.9070    23.6770 c3         1 2GJ      -0.090100
     29 C31         33.7970    10.7850    22.2580 c3         1 2GJ      -0.090100
     30 C15         30.4640    12.3140    22.8840 ca         1 2GJ       0.206100
     31 O34         30.4520    13.2250    21.8710 oh         1 2GJ      -0.530100
     32 C16         29.2510    11.9880    23.4940 ca         1 2GJ      -0.207000
     33 C17         29.2000    11.0660    24.5420 ca         1 2GJ       0.228100
     34 O33         27.9820    10.7760    25.0770 oh         1 2GJ      -0.528100
     35 H251        37.4850     5.1770    21.8460 h1         1 2GJ       0.043450
     36 H252        36.3940     5.7550    20.5790 h1         1 2GJ       0.043450
     37 H261        35.3550     3.5030    20.3720 h1         1 2GJ       0.051200
     38 H262        37.1230     3.3640    20.2100 h1         1 2GJ       0.051200
     39 H281        34.3190     2.8050    22.5200 h1         1 2GJ       0.051200
     40 H282        35.3870     2.1970    23.8080 h1         1 2GJ       0.051200
     41 H291        34.6120     4.5530    24.2570 h1         1 2GJ       0.043450
     42 H292        36.3730     4.4330    24.1440 h1         1 2GJ       0.043450
     43 H231        36.5320     6.9130    23.4920 h1         1 2GJ       0.037700
     44 H232        35.5870     7.4870    22.1180 h1         1 2GJ       0.037700
     45 H21         32.9400     7.2040    22.3330 ha         1 2GJ       0.119500
     46 H19         35.6750     7.3130    25.6720 ha         1 2GJ       0.119500
     47 H22         31.0920     7.8990    23.8220 ha         1 2GJ       0.117000
     48 H18         33.8420     8.0310    27.1570 ha         1 2GJ       0.117000
     49 H10         30.3910     7.7910    30.2340 hn         1 2GJ       0.330500
     50 H111        30.8280     6.1680    31.8480 h1         1 2GJ       0.056200
     51 H112        31.6390     5.1700    30.6240 h1         1 2GJ       0.056200
     52 H121        33.6990     6.6110    30.8140 hc         1 2GJ       0.043033
     53 H122        32.8770     7.6220    32.0260 hc         1 2GJ       0.043033
     54 H123        33.2520     5.9240    32.3890 hc         1 2GJ       0.043033
     55 H13         32.5330    10.3840    24.7730 ha         1 2GJ       0.129000
     56 H30         32.9050    12.6530    21.8000 hc         1 2GJ       0.035700
     57 H321        34.1070    12.3530    24.5960 hc         1 2GJ       0.038867
     58 H322        34.8300    13.1960    23.2100 hc         1 2GJ       0.038867
     59 H323        33.3440    13.8220    23.9520 hc         1 2GJ       0.038867
     60 H311        34.6970    11.0580    21.6940 hc         1 2GJ       0.038867
     61 H312        34.1110    10.1780    23.1140 hc         1 2GJ       0.038867
     62 H313        33.1660    10.1660    21.6090 hc         1 2GJ       0.038867
     63 H34         31.3750    13.3560    21.5760 ho         1 2GJ       0.474000
     64 H16         28.3340    12.4570    23.1470 ha         1 2GJ       0.149000
     65 H33         28.1270    10.2170    25.8680 ho         1 2GJ       0.489000
@<TRIPOS>BOND
     1     1     2 1   
     2     1     6 1   
     3     1    35 1   
     4     1    36 1   
     5     2     3 1   
     6     2    37 1   
     7     2    38 1   
     8     3     4 1   
     9     4     5 1   
    10     4    39 1   
    11     4    40 1   
    12     5     6 1   
    13     5    41 1   
    14     5    42 1   
    15     6     7 1   
    16     7     8 1   
    17     7    43 1   
    18     7    44 1   
    19     8     9 ar  
    20     8    11 ar  
    21     9    10 ar  
    22     9    45 1   
    23    10    13 ar  
    24    10    47 1   
    25    11    12 ar  
    26    11    46 1   
    27    12    13 ar  
    28    12    48 1   
    29    13    14 1   
    30    14    15 1   
    31    14    23 2   
    32    15    16 1   
    33    15    21 2   
    34    16    17 2   
    35    16    18 1   
    36    18    19 1   
    37    18    49 1   
    38    19    20 1   
    39    19    50 1   
    40    19    51 1   
    41    20    52 1   
    42    20    53 1   
    43    20    54 1   
    44    21    22 1   
    45    22    23 1   
    46    23    24 1   
    47    24    25 ar  
    48    24    33 ar  
    49    25    26 ar  
    50    25    55 1   
    51    26    27 1   
    52    26    30 ar  
    53    27    28 1   
    54    27    29 1   
    55    27    56 1   
    56    28    57 1   
    57    28    58 1   
    58    28    59 1   
    59    29    60 1   
    60    29    61 1   
    61    29    62 1   
    62    30    31 1   
    63    30    32 ar  
    64    31    63 1   
    65    32    33 ar  
    66    32    64 1   
    67    33    34 1   
    68    34    65 1   
@<TRIPOS>SUBSTRUCTURE
     1 2GJ         1 TEMP              0 ****  ****    0 ROOT
