@<TRIPOS>MOLECULE
2GL
   27    27     1     0     0
SMALL
No Charge or Current Charge


@<TRIPOS>ATOM
      1 O5          -7.6630     3.5390     0.8690 os         1 2GL      -0.431000
      2 C1          -7.6630     3.7220    -0.5520 c6         1 2GL       0.408300
      3 C2          -9.1100     3.9170    -1.0540 c6         1 2GL      -0.147400
      4 C3          -9.7640     5.1150    -0.3280 c6         1 2GL       0.167300
      5 O3         -11.1080     5.2820    -0.7980 oh         1 2GL      -0.647000
      6 C4          -9.6760     4.9290     1.2270 c6         1 2GL       0.098300
      7 O4         -10.5200     3.8540     1.7260 os         1 2GL      -0.427100
      8 CME        -12.5260     2.7360     2.4040 c3         1 2GL      -0.155100
      9 CO4        -11.8730     3.9990     1.8640 c          1 2GL       0.604100
     10 OC4        -12.4900     5.0090     1.5540 o          1 2GL      -0.500000
     11 C5          -8.1830     4.6690     1.6040 c6         1 2GL       0.186300
     12 O1          -7.0990     2.5510    -1.1170 oh         1 2GL      -0.639000
     13 C6          -7.9720     4.3740     3.1110 c3         1 2GL      -0.085100
     14 HO1         -7.0290     2.7280    -2.0790 ho         1 2GL       0.458000
     15 H1          -7.0490     4.5970    -0.8120 h2         1 2GL       0.005700
     16 H2          -9.1090     4.0920    -2.1380 hc         1 2GL       0.072700
     17 H22         -9.6920     3.0030    -0.8760 hc         1 2GL       0.072700
     18 H3          -9.1860     6.0160    -0.5850 h1         1 2GL       0.028700
     19 HO3        -11.6840     5.3130     0.0050 ho         1 2GL       0.455000
     20 H4          -9.9810     5.8660     1.7180 h1         1 2GL       0.072700
     21 HM41       -13.6140     2.8290     2.4940 hc         1 2GL       0.070700
     22 HM42       -12.2390     1.8920     1.7680 hc         1 2GL       0.070700
     23 HM43       -12.0560     2.4770     3.3590 hc         1 2GL       0.070700
     24 H5          -7.5870     5.5580     1.3470 h1         1 2GL       0.034700
     25 H61         -6.9070     4.2550     3.3400 hc         1 2GL       0.051367
     26 H62         -8.3540     5.1960     3.7290 hc         1 2GL       0.051367
     27 H63         -8.4860     3.4560     3.4180 hc         1 2GL       0.051367
@<TRIPOS>BOND
     1     1     2 1   
     2     1    11 1   
     3     2     3 1   
     4     2    12 1   
     5     2    15 1   
     6     3     4 1   
     7     3    16 1   
     8     3    17 1   
     9     4     5 1   
    10     4     6 1   
    11     4    18 1   
    12     5    19 1   
    13     6     7 1   
    14     6    11 1   
    15     6    20 1   
    16     7     9 1   
    17     8     9 1   
    18     8    21 1   
    19     8    22 1   
    20     8    23 1   
    21     9    10 2   
    22    11    13 1   
    23    11    24 1   
    24    12    14 1   
    25    13    25 1   
    26    13    26 1   
    27    13    27 1   
@<TRIPOS>SUBSTRUCTURE
     1 2GL         1 TEMP              0 ****  ****    0 ROOT
