@<TRIPOS>MOLECULE
2GL
   27    27     1     0     0
SMALL
bcc


@<TRIPOS>ATOM
      1 O5          -7.7320     3.5400     0.8980 os         1 2GL      -0.384600
      2 C1          -7.7210     3.6970    -0.4900 c6         1 2GL       0.361900
      3 C2          -9.1340     3.8910    -1.0290 c6         1 2GL      -0.147400
      4 C3          -9.8000     5.0710    -0.3410 c6         1 2GL       0.144100
      5 O3         -11.1230     5.1650    -0.8010 oh         1 2GL      -0.584800
      6 C4          -9.7080     4.9120     1.1780 c6         1 2GL       0.075100
      7 O4         -10.4880     3.7870     1.5820 os         1 2GL      -0.403900
      8 CME        -12.3720     2.6450     2.3500 c3         1 2GL      -0.155100
      9 CO4        -11.7250     3.9630     2.0420 c          1 2GL       0.653100
     10 OC4        -12.2450     5.0390     2.1950 o          1 2GL      -0.549000
     11 C5          -8.2590     4.6570     1.5840 c6         1 2GL       0.163100
     12 O1          -7.1220     2.5310    -0.9570 oh         1 2GL      -0.576800
     13 C6          -8.0850     4.4280     3.0710 c3         1 2GL      -0.085100
     14 HO1         -6.9850     2.6140    -1.9060 ho         1 2GL       0.419000
     15 H1          -7.1160     4.5860    -0.7530 h2         1 2GL       0.005700
     16 H2          -9.0900     4.0690    -2.1070 hc         1 2GL       0.072700
     17 H22         -9.7140     2.9780    -0.8660 hc         1 2GL       0.072700
     18 H3          -9.2340     5.9820    -0.5860 h1         1 2GL       0.028700
     19 HO3        -11.5120     5.9790    -0.4620 ho         1 2GL       0.416000
     20 H4         -10.0540     5.8210     1.6790 h1         1 2GL       0.072700
     21 HM41       -13.3450     2.7960     2.8080 hc         1 2GL       0.070700
     22 HM42       -12.4990     2.0680     1.4330 hc         1 2GL       0.070700
     23 HM43       -11.7460     2.0540     3.0180 hc         1 2GL       0.070700
     24 H5          -7.7020     5.5640     1.3020 h1         1 2GL       0.034700
     25 H61         -7.0280     4.3420     3.3240 hc         1 2GL       0.051367
     26 H62         -8.4910     5.2720     3.6280 hc         1 2GL       0.051367
     27 H63         -8.5910     3.5230     3.4050 hc         1 2GL       0.051367
@<TRIPOS>BOND
     1     1     2 1   
     2     1    11 1   
     3     2     3 1   
     4     2    12 1   
     5     2    15 1   
     6     3     4 1   
     7     3    16 1   
     8     3    17 1   
     9     4     5 1   
    10     4     6 1   
    11     4    18 1   
    12     5    19 1   
    13     6     7 1   
    14     6    11 1   
    15     6    20 1   
    16     7     9 1   
    17     8     9 1   
    18     8    21 1   
    19     8    22 1   
    20     8    23 1   
    21     9    10 2   
    22    11    13 1   
    23    11    24 1   
    24    12    14 1   
    25    13    25 1   
    26    13    26 1   
    27    13    27 1   
@<TRIPOS>SUBSTRUCTURE
     1 2GL         1 TEMP              0 ****  ****    0 ROOT
