@<TRIPOS>MOLECULE
2GM
   80    87     1     0     0
SMALL
No Charge or Current Charge


@<TRIPOS>ATOM
      1 C10         -2.9590     1.0380     0.0840 c6         1 2GM      -0.060400
      2 C11         -4.0180     0.1090    -0.5640 c6         1 2GM      -0.009400
      3 C12         -5.3620     0.8240    -0.8270 ca         1 2GM      -0.024300
      4 C17         -6.4920     0.0280    -0.8590 ca         1 2GM      -0.115800
      5 C13         -5.5650     2.2040    -1.0780 ca         1 2GM      -0.132000
      6 C14         -6.8780     2.6950    -1.3260 ca         1 2GM      -0.089000
      7 C15         -7.9950     1.8210    -1.3340 ca         1 2GM      -0.127000
      8 C16         -7.7510     0.4640    -1.0920 ca         1 2GM      -0.036200
      9 N1          -8.6010    -0.6320    -1.0330 na         1 2GM      -0.227700
     10 C2          -7.8550    -1.8090    -0.7480 cc         1 2GM      -0.152100
     11 C3          -6.5410    -1.3660    -0.6470 cd         1 2GM      -0.143400
     12 C4          -5.3060    -2.1700    -0.3300 c6         1 2GM       0.006800
     13 C5          -4.2010    -1.2240     0.2880 c6         1 2GM       0.188500
     14 N6          -2.8810    -1.9270     0.4900 n3         1 2GM      -0.726600
     15 C7          -2.9810    -3.2210     1.2080 c3         1 2GM       0.153100
     16 C8          -1.8850    -1.0420     1.1530 c6         1 2GM       0.172800
     17 C9          -1.6560     0.2540     0.3570 c6         1 2GM      -0.145700
     18 C18         -0.5380     1.1190     0.9560 c          1 2GM       0.601100
     19 O19         -0.6240     1.5700     2.0870 o          1 2GM      -0.561100
     20 N20          0.5460     1.3330     0.1270 ns         1 2GM      -0.531900
     21 C21          1.6780     2.1680     0.5570 c5         1 2GM       0.274400
     22 C22          1.3230     3.6140     0.9750 c3         1 2GM      -0.098100
     23 O43          2.5580     2.2350    -0.5840 os         1 2GM      -0.479000
     24 C23          2.5010     1.3710     1.6310 c          1 2GM       0.544000
     25 O24          2.4030     1.3280     2.8510 o          1 2GM      -0.478000
     26 N25          3.4480     0.6870     0.8810 n          1 2GM      -0.479800
     27 C41          3.4430     1.1050    -0.5170 c5         1 2GM       0.553400
     28 O42          2.9640     0.0640    -1.3280 oh         1 2GM      -0.643000
     29 C40          4.9160     1.6160    -0.8090 c5         1 2GM       0.127700
     30 C39          5.1250     1.8780    -2.3290 c5         1 2GM      -0.078400
     31 C38          6.6690     1.7380    -2.4220 c5         1 2GM      -0.097400
     32 C37          6.9450     0.4540    -1.5820 c5         1 2GM       0.104000
     33 N36          5.8540     0.4980    -0.5870 n          1 2GM      -0.405800
     34 C34          5.8520    -0.2340     0.6100 c          1 2GM       0.565000
     35 O35          6.7950    -0.9550     0.9110 o          1 2GM      -0.561000
     36 C26          4.5550    -0.1360     1.4810 c6         1 2GM       0.056700
     37 C27          4.0610    -1.5690     1.8490 c3         1 2GM      -0.034100
     38 C28          3.3400    -2.2680     0.7020 ca         1 2GM      -0.084300
     39 C29          4.0690    -2.9120    -0.3160 ca         1 2GM      -0.107500
     40 C30          3.3980    -3.5170    -1.3920 ca         1 2GM      -0.118000
     41 C31          1.9950    -3.4830    -1.4560 ca         1 2GM      -0.112000
     42 C32          1.2620    -2.8470    -0.4410 ca         1 2GM      -0.118000
     43 C33          1.9330    -2.2420     0.6360 ca         1 2GM      -0.107500
     44 H1          -2.7400     1.8890    -0.5750 hc         1 2GM       0.061200
     45 H2          -3.3520     1.4510     1.0230 hc         1 2GM       0.061200
     46 H3          -3.6300    -0.1940    -1.5470 hc         1 2GM       0.069700
     47 H4          -4.7280     2.8960    -1.0880 ha         1 2GM       0.115000
     48 H5          -7.0260     3.7560    -1.5160 ha         1 2GM       0.109000
     49 H6          -9.0000     2.1910    -1.5240 ha         1 2GM       0.114000
     50 H7          -9.6070    -0.5930    -1.1710 hn         1 2GM       0.349000
     51 H8          -8.2970    -2.7960    -0.6420 h4         1 2GM       0.211000
     52 H9          -5.5630    -2.9740     0.3710 hc         1 2GM       0.051200
     53 H10         -4.9220    -2.6450    -1.2420 hc         1 2GM       0.051200
     54 H11         -4.5800    -0.9140     1.2750 h1         1 2GM       0.034700
     55 H13         -3.5510    -3.9580     0.6280 h1         1 2GM       0.031700
     56 H14         -1.9830    -3.6490     1.3760 h1         1 2GM       0.031700
     57 H15         -3.4660    -3.0920     2.1850 h1         1 2GM       0.031700
     58 H16         -2.2240    -0.7850     2.1680 h1         1 2GM       0.037200
     59 H17         -0.9260    -1.5660     1.2600 h1         1 2GM       0.037200
     60 H18         -1.2870    -0.0620    -0.6290 hc         1 2GM       0.071700
     61 H19          0.5230     0.8990    -0.7870 hn         1 2GM       0.321500
     62 H20          0.8110     3.6530     1.9420 hc         1 2GM       0.064700
     63 H21          2.2300     4.2220     1.0700 hc         1 2GM       0.064700
     64 H22          0.6770     4.0910     0.2290 hc         1 2GM       0.064700
     65 H23          3.0890    -0.7400    -0.7830 ho         1 2GM       0.481000
     66 H24          5.1810     2.4870    -0.1940 h1         1 2GM       0.069700
     67 H25          4.6310     1.1350    -2.9650 hc         1 2GM       0.070700
     68 H26          4.7650     2.8670    -2.6360 hc         1 2GM       0.070700
     69 H27          7.0270     1.6480    -3.4530 hc         1 2GM       0.056200
     70 H28          7.1690     2.6080    -1.9790 hc         1 2GM       0.056200
     71 H29          6.8630    -0.4530    -2.1970 h1         1 2GM       0.060200
     72 H30          7.9400     0.4720    -1.1180 h1         1 2GM       0.060200
     73 H31          4.8860     0.3550     2.4070 h1         1 2GM       0.086700
     74 H32          4.8930    -2.1880     2.2070 hc         1 2GM       0.076700
     75 H33          3.3820    -1.4930     2.7070 hc         1 2GM       0.076700
     76 H34          5.1560    -2.9460    -0.2770 ha         1 2GM       0.126000
     77 H35          3.9660    -4.0120    -2.1770 ha         1 2GM       0.112500
     78 H36          1.4770    -3.9510    -2.2900 ha         1 2GM       0.112000
     79 H37          0.1760    -2.8220    -0.4910 ha         1 2GM       0.112500
     80 H38          1.3610    -1.7450     1.4160 ha         1 2GM       0.126000
@<TRIPOS>BOND
     1     1     2 1   
     2     1    17 1   
     3     1    44 1   
     4     1    45 1   
     5     2     3 1   
     6     2    13 1   
     7     2    46 1   
     8     3     4 ar  
     9     3     5 ar  
    10     4     8 ar  
    11     4    11 1   
    12     5     6 ar  
    13     5    47 1   
    14     6     7 ar  
    15     6    48 1   
    16     7     8 ar  
    17     7    49 1   
    18     8     9 1   
    19     9    10 1   
    20     9    50 1   
    21    10    11 2   
    22    10    51 1   
    23    11    12 1   
    24    12    13 1   
    25    12    52 1   
    26    12    53 1   
    27    13    14 1   
    28    13    54 1   
    29    14    15 1   
    30    14    16 1   
    31    15    55 1   
    32    15    56 1   
    33    15    57 1   
    34    16    17 1   
    35    16    58 1   
    36    16    59 1   
    37    17    18 1   
    38    17    60 1   
    39    18    19 2   
    40    18    20 1   
    41    20    21 1   
    42    20    61 1   
    43    21    22 1   
    44    21    23 1   
    45    21    24 1   
    46    22    62 1   
    47    22    63 1   
    48    22    64 1   
    49    23    27 1   
    50    24    25 2   
    51    24    26 1   
    52    26    27 1   
    53    26    36 1   
    54    27    28 1   
    55    27    29 1   
    56    28    65 1   
    57    29    30 1   
    58    29    33 1   
    59    29    66 1   
    60    30    31 1   
    61    30    67 1   
    62    30    68 1   
    63    31    32 1   
    64    31    69 1   
    65    31    70 1   
    66    32    33 1   
    67    32    71 1   
    68    32    72 1   
    69    33    34 1   
    70    34    35 2   
    71    34    36 1   
    72    36    37 1   
    73    36    73 1   
    74    37    38 1   
    75    37    74 1   
    76    37    75 1   
    77    38    39 ar  
    78    38    43 ar  
    79    39    40 ar  
    80    39    76 1   
    81    40    41 ar  
    82    40    77 1   
    83    41    42 ar  
    84    41    78 1   
    85    42    43 ar  
    86    42    79 1   
    87    43    80 1   
@<TRIPOS>SUBSTRUCTURE
     1 2GM         1 TEMP              0 ****  ****    0 ROOT
