@<TRIPOS>MOLECULE
2GM
   80    87     1     0     0
SMALL
bcc


@<TRIPOS>ATOM
      1 C10         -3.1380     1.2450     0.0730 c6         1 2GM      -0.060400
      2 C11         -4.2810     0.5030    -0.6080 c6         1 2GM      -0.009400
      3 C12         -5.6170     0.8060     0.0300 ca         1 2GM      -0.024300
      4 C17         -6.5930    -0.1720    -0.1260 ca         1 2GM      -0.115800
      5 C13         -5.9910     1.9430     0.7230 ca         1 2GM      -0.150000
      6 C14         -7.3040     2.0780     1.2230 ca         1 2GM      -0.107000
      7 C15         -8.2730     1.1010     1.0640 ca         1 2GM      -0.145000
      8 C16         -7.8950    -0.0520     0.3730 ca         1 2GM      -0.036200
      9 N1          -8.5360    -1.2110     0.0390 na         1 2GM      -0.177400
     10 C2          -7.6690    -2.0410    -0.6390 cc         1 2GM      -0.102100
     11 C3          -6.4560    -1.4270    -0.7640 cd         1 2GM      -0.143400
     12 C4          -5.1400    -1.7980    -1.3620 c6         1 2GM       0.006800
     13 C5          -4.0110    -1.0250    -0.6490 c6         1 2GM       0.188500
     14 N6          -2.7260    -1.2600    -1.3040 n3         1 2GM      -0.726600
     15 C7          -2.4170    -2.6640    -1.4950 c3         1 2GM       0.153100
     16 C8          -1.6350    -0.6110    -0.6040 c6         1 2GM       0.172800
     17 C9          -1.8160     0.9040    -0.5880 c6         1 2GM      -0.145700
     18 C18         -0.6430     1.5780     0.1060 c          1 2GM       0.668100
     19 O19         -0.7350     2.1310     1.1850 o          1 2GM      -0.561100
     20 N20          0.5230     1.4830    -0.5810 ns         1 2GM      -0.598900
     21 C21          1.7550     2.2020    -0.2860 c5         1 2GM       0.251200
     22 C22          1.6020     3.7070    -0.3450 c3         1 2GM      -0.098100
     23 O43          2.6880     1.7810    -1.2490 os         1 2GM      -0.432600
     24 C23          2.3850     1.7320     1.0360 c          1 2GM       0.686500
     25 O24          2.0910     2.0710     2.1580 o          1 2GM      -0.553500
     26 N25          3.3730     0.8840     0.6870 n          1 2GM      -0.546800
     27 C41          3.5670     0.8120    -0.7380 c5         1 2GM       0.507000
     28 O42          3.3390    -0.4390    -1.2500 oh         1 2GM      -0.580800
     29 C40          4.9980     1.2240    -1.0380 c5         1 2GM       0.127700
     30 C39          5.5070     1.0570    -2.4630 c5         1 2GM      -0.078400
     31 C38          7.0100     0.8840    -2.2480 c5         1 2GM      -0.097400
     32 C37          7.1010     0.0210    -0.9930 c5         1 2GM       0.104000
     33 N36          5.8870     0.3700    -0.2610 n          1 2GM      -0.472800
     34 C34          5.6250    -0.1150     0.9550 c          1 2GM       0.707500
     35 O35          6.4070    -0.8350     1.5600 o          1 2GM      -0.636500
     36 C26          4.3160     0.3070     1.6250 c6         1 2GM       0.056700
     37 C27          3.6890    -0.8330     2.4460 c3         1 2GM      -0.034100
     38 C28          3.0610    -1.9070     1.6060 ca         1 2GM      -0.084300
     39 C29          3.8210    -2.9430     1.0660 ca         1 2GM      -0.125500
     40 C30          3.2360    -3.9070     0.2570 ca         1 2GM      -0.136000
     41 C31          1.8760    -3.8580    -0.0200 ca         1 2GM      -0.130000
     42 C32          1.1050    -2.8410     0.5250 ca         1 2GM      -0.136000
     43 C33          1.6940    -1.8710     1.3270 ca         1 2GM      -0.125500
     44 H1          -3.3110     2.3220     0.0300 hc         1 2GM       0.061200
     45 H2          -3.1060     0.9680     1.1310 hc         1 2GM       0.061200
     46 H3          -4.3300     0.8350    -1.6550 hc         1 2GM       0.069700
     47 H4          -5.2890     2.7490     0.8950 ha         1 2GM       0.133000
     48 H5          -7.5620     2.9830     1.7570 ha         1 2GM       0.127000
     49 H6          -9.2710     1.2350     1.4640 ha         1 2GM       0.132000
     50 H7          -9.4890    -1.4420     0.2640 hn         1 2GM       0.298700
     51 H8          -8.0010    -3.0110    -0.9750 h4         1 2GM       0.161000
     52 H9          -4.9780    -2.8730    -1.2820 hc         1 2GM       0.051200
     53 H10         -5.1070    -1.5520    -2.4290 hc         1 2GM       0.051200
     54 H11         -3.9730    -1.3810     0.3990 h1         1 2GM       0.034700
     55 H13         -3.0990    -3.1290    -2.2050 h1         1 2GM       0.031700
     56 H14         -1.4150    -2.7570    -1.9160 h1         1 2GM       0.031700
     57 H15         -2.4460    -3.2520    -0.5640 h1         1 2GM       0.031700
     58 H16         -1.5450    -0.9690     0.4390 h1         1 2GM       0.037200
     59 H17         -0.7040    -0.8750    -1.1100 h1         1 2GM       0.037200
     60 H18         -1.8340     1.2440    -1.6310 hc         1 2GM       0.071700
     61 H19          0.4670     1.1510    -1.5340 hn         1 2GM       0.321500
     62 H20          0.8780     4.0450     0.3910 hc         1 2GM       0.064700
     63 H21          2.5540     4.1980    -0.1410 hc         1 2GM       0.064700
     64 H22          1.2570     4.0060    -1.3340 hc         1 2GM       0.064700
     65 H23          2.5990    -0.8650    -0.7950 ho         1 2GM       0.442000
     66 H24          5.1090     2.2680    -0.7240 h1         1 2GM       0.069700
     67 H25          5.0860     0.1650    -2.9290 hc         1 2GM       0.070700
     68 H26          5.2610     1.9150    -3.0860 hc         1 2GM       0.070700
     69 H27          7.5080     0.4230    -3.0980 hc         1 2GM       0.056200
     70 H28          7.4780     1.8540    -2.0710 hc         1 2GM       0.056200
     71 H29          7.0980    -1.0440    -1.2340 h1         1 2GM       0.060200
     72 H30          7.9910     0.2300    -0.4000 h1         1 2GM       0.060200
     73 H31          4.5960     1.0960     2.3330 h1         1 2GM       0.086700
     74 H32          4.4630    -1.2460     3.0920 hc         1 2GM       0.076700
     75 H33          2.9390    -0.3870     3.0990 hc         1 2GM       0.076700
     76 H34          4.8800    -2.9980     1.2810 ha         1 2GM       0.144000
     77 H35          3.8440    -4.7020    -0.1540 ha         1 2GM       0.130500
     78 H36          1.4180    -4.6140    -0.6450 ha         1 2GM       0.130000
     79 H37          0.0390    -2.8080     0.3380 ha         1 2GM       0.130500
     80 H38          1.0800    -1.0910     1.7640 ha         1 2GM       0.144000
@<TRIPOS>BOND
     1     1     2 1   
     2     1    17 1   
     3     1    44 1   
     4     1    45 1   
     5     2     3 1   
     6     2    13 1   
     7     2    46 1   
     8     3     4 ar  
     9     3     5 ar  
    10     4     8 ar  
    11     4    11 1   
    12     5     6 ar  
    13     5    47 1   
    14     6     7 ar  
    15     6    48 1   
    16     7     8 ar  
    17     7    49 1   
    18     8     9 1   
    19     9    10 1   
    20     9    50 1   
    21    10    11 2   
    22    10    51 1   
    23    11    12 1   
    24    12    13 1   
    25    12    52 1   
    26    12    53 1   
    27    13    14 1   
    28    13    54 1   
    29    14    15 1   
    30    14    16 1   
    31    15    55 1   
    32    15    56 1   
    33    15    57 1   
    34    16    17 1   
    35    16    58 1   
    36    16    59 1   
    37    17    18 1   
    38    17    60 1   
    39    18    19 2   
    40    18    20 1   
    41    20    21 1   
    42    20    61 1   
    43    21    22 1   
    44    21    23 1   
    45    21    24 1   
    46    22    62 1   
    47    22    63 1   
    48    22    64 1   
    49    23    27 1   
    50    24    25 2   
    51    24    26 1   
    52    26    27 1   
    53    26    36 1   
    54    27    28 1   
    55    27    29 1   
    56    28    65 1   
    57    29    30 1   
    58    29    33 1   
    59    29    66 1   
    60    30    31 1   
    61    30    67 1   
    62    30    68 1   
    63    31    32 1   
    64    31    69 1   
    65    31    70 1   
    66    32    33 1   
    67    32    71 1   
    68    32    72 1   
    69    33    34 1   
    70    34    35 2   
    71    34    36 1   
    72    36    37 1   
    73    36    73 1   
    74    37    38 1   
    75    37    74 1   
    76    37    75 1   
    77    38    39 ar  
    78    38    43 ar  
    79    39    40 ar  
    80    39    76 1   
    81    40    41 ar  
    82    40    77 1   
    83    41    42 ar  
    84    41    78 1   
    85    42    43 ar  
    86    42    79 1   
    87    43    80 1   
@<TRIPOS>SUBSTRUCTURE
     1 2GM         1 TEMP              0 ****  ****    0 ROOT
