@<TRIPOS>MOLECULE
2GN
   67    72     1     0     0
SMALL
abcg2


@<TRIPOS>ATOM
      1 O25         29.1470    40.6600     3.5250 o          1 2GN      -0.541000
      2 S21         28.0130    40.9240     2.6690 sy         1 2GN       1.221600
      3 O24         28.0520    42.0870     1.8180 o          1 2GN      -0.541000
      4 N23         26.6280    40.9630     3.5170 n3         1 2GN      -0.802500
      5 C28         25.8720    42.2130     3.6720 c6         1 2GN       0.188800
      6 C30         24.4170    41.8610     3.9330 c6         1 2GN       0.148600
      7 O31         24.2840    40.9890     5.0530 os         1 2GN      -0.447000
      8 C29         24.9790    39.7650     4.8290 c6         1 2GN       0.148600
      9 C27         26.4640    40.0060     4.6200 c6         1 2GN       0.188800
     10 C18         27.8220    39.4680     1.6570 ca         1 2GN      -0.277500
     11 C16         28.7260    38.4340     1.8420 ca         1 2GN       0.034000
     12 C22         26.8230    39.3310     0.6860 ca         1 2GN       0.239000
     13 CL2         25.6280    40.5550     0.4110 cl         1 2GN      -0.153000
     14 C19         26.7540    38.1830    -0.0870 ca         1 2GN      -0.129000
     15 C17         27.6850    37.1690     0.1000 ca         1 2GN       0.196000
     16 CL1         27.5390    35.7360    -0.8730 cl         1 2GN      -0.162000
     17 C14         28.6840    37.2810     1.0660 ca         1 2GN      -0.167600
     18 C13         29.6900    36.2150     1.3760 c          1 2GN       0.617700
     19 O15         29.7710    35.7190     2.4900 o          1 2GN      -0.556100
     20 N10         30.5350    35.8760     0.3640 ns         1 2GN      -0.360100
     21 C5          31.5440    34.9410     0.4590 cc         1 2GN      -0.031400
     22 C2          32.4180    34.6070    -0.5630 cd         1 2GN      -0.114000
     23 C6          32.3620    35.1920    -1.8460 ch         1 2GN       0.348000
     24 N11         32.3100    35.6760    -2.8940 n1         1 2GN      -0.468000
     25 S7          31.8830    34.0420     1.8960 ss         1 2GN       0.321000
     26 C3          33.2020    33.2220     1.1190 cc         1 2GN      -0.256300
     27 C8          34.0480    32.2010     1.8110 c6         1 2GN       0.247100
     28 N12         34.7840    31.4240     0.8160 n3         1 2GN      -0.717600
     29 C9          35.4740    32.2960    -0.1370 c6         1 2GN       0.164800
     30 C4          34.4690    33.0380    -1.0160 c6         1 2GN      -0.012100
     31 C1          33.3790    33.6150    -0.1690 cd         1 2GN      -0.026300
     32 C32         35.6930    30.4850     1.4680 c3         1 2GN       0.210100
     33 C33         36.2410    29.4570     0.5100 ca         1 2GN      -0.071300
     34 C38         35.3760    28.6850    -0.2680 ca         1 2GN      -0.106000
     35 C37         35.8680    27.7350    -1.1480 ca         1 2GN      -0.076500
     36 C36         37.2480    27.5320    -1.2700 ca         1 2GN      -0.129500
     37 C35         38.1160    28.2990    -0.4910 ca         1 2GN      -0.076500
     38 C34         37.6130    29.2510     0.3870 ca         1 2GN      -0.106000
     39 C06         37.7750    26.5380    -2.2010 cc         1 2GN       0.563500
     40 N01         37.0280    25.7760    -3.0000 nd         1 2GN      -0.515800
     41 N02         39.0970    26.2660    -2.3700 nc         1 2GN      -0.383000
     42 N05         39.1780    25.3310    -3.2800 nd         1 2GN      -0.166800
     43 N04         37.9410    25.0620    -3.6320 na         1 2GN       0.099600
     44 H281        26.2750    42.7940     4.5080 h1         1 2GN       0.065950
     45 H282        25.9570    42.7980     2.7610 h1         1 2GN       0.065950
     46 H271        26.9520    39.0650     4.3680 h1         1 2GN       0.065950
     47 H272        26.9210    40.4020     5.5330 h1         1 2GN       0.065950
     48 H301        23.8550    42.7640     4.1670 h1         1 2GN       0.057700
     49 H302        23.9860    41.3870     3.0430 h1         1 2GN       0.057700
     50 H291        24.8240    39.1460     5.7120 h1         1 2GN       0.057700
     51 H292        24.5600    39.2570     3.9520 h1         1 2GN       0.057700
     52 H16         29.4860    38.5310     2.6040 ha         1 2GN       0.166000
     53 H19         25.9740    38.0760    -0.8270 ha         1 2GN       0.154000
     54 H10         30.4430    36.3580    -0.5210 hn         1 2GN       0.344500
     55 H81         34.7340    32.7040     2.5160 h1         1 2GN       0.044200
     56 H82         33.4310    31.5200     2.4010 h1         1 2GN       0.044200
     57 H91         36.1130    33.0220     0.3940 h1         1 2GN       0.042200
     58 H92         36.1240    31.6840    -0.7600 h1         1 2GN       0.042200
     59 H321        36.5270    31.0070     1.9640 h1         1 2GN       0.041700
     60 H322        35.1260    29.9760     2.2530 h1         1 2GN       0.041700
     61 H41         34.9800    33.8280    -1.5730 hc         1 2GN       0.064700
     62 H42         34.0420    32.3530    -1.7550 hc         1 2GN       0.064700
     63 H38         34.3080    28.8420    -0.1880 ha         1 2GN       0.122500
     64 H34         38.2970    29.8470     0.9780 ha         1 2GN       0.122500
     65 H37         35.1850    27.1460    -1.7440 ha         1 2GN       0.131500
     66 H35         39.1840    28.1560    -0.5790 ha         1 2GN       0.131500
     67 H04         37.7130    24.3660    -4.3320 hn         1 2GN       0.407000
@<TRIPOS>BOND
     1     1     2 2   
     2     2     3 2   
     3     2     4 1   
     4     2    10 1   
     5     4     5 1   
     6     4     9 1   
     7     5     6 1   
     8     5    44 1   
     9     5    45 1   
    10     6     7 1   
    11     6    48 1   
    12     6    49 1   
    13     7     8 1   
    14     8     9 1   
    15     8    50 1   
    16     8    51 1   
    17     9    46 1   
    18     9    47 1   
    19    10    11 ar  
    20    10    12 ar  
    21    11    17 ar  
    22    11    52 1   
    23    12    13 1   
    24    12    14 ar  
    25    14    15 ar  
    26    14    53 1   
    27    15    16 1   
    28    15    17 ar  
    29    17    18 1   
    30    18    19 2   
    31    18    20 1   
    32    20    21 1   
    33    20    54 1   
    34    21    22 2   
    35    21    25 1   
    36    22    23 1   
    37    22    31 1   
    38    23    24 3   
    39    25    26 1   
    40    26    27 1   
    41    26    31 2   
    42    27    28 1   
    43    27    55 1   
    44    27    56 1   
    45    28    29 1   
    46    28    32 1   
    47    29    30 1   
    48    29    57 1   
    49    29    58 1   
    50    30    31 1   
    51    30    61 1   
    52    30    62 1   
    53    32    33 1   
    54    32    59 1   
    55    32    60 1   
    56    33    34 ar  
    57    33    38 ar  
    58    34    35 ar  
    59    34    63 1   
    60    35    36 ar  
    61    35    65 1   
    62    36    37 ar  
    63    36    39 1   
    64    37    38 ar  
    65    37    66 1   
    66    38    64 1   
    67    39    40 2   
    68    39    41 1   
    69    40    43 1   
    70    41    42 2   
    71    42    43 1   
    72    43    67 1   
@<TRIPOS>SUBSTRUCTURE
     1 2GN         1 TEMP              0 ****  ****    0 ROOT
