@<TRIPOS>MOLECULE
2GN
   67    72     1     0     0
SMALL
No Charge or Current Charge


@<TRIPOS>ATOM
      1 O25         28.4560    40.9600     4.1340 o          1 2GN      -0.541000
      2 S21         27.6260    41.1750     2.9440 sy         1 2GN       1.221600
      3 O24         27.6030    42.4640     2.2440 o          1 2GN      -0.541000
      4 N23         26.0180    40.8640     3.4030 n3         1 2GN      -0.802500
      5 C28         25.4630    41.8420     4.3850 c6         1 2GN       0.188800
      6 C30         23.9560    41.5770     4.6690 c6         1 2GN       0.148600
      7 O31         23.7550    40.2080     5.0960 os         1 2GN      -0.447000
      8 C29         24.2150    39.2480     4.1140 c6         1 2GN       0.148600
      9 C27         25.7280    39.4560     3.8140 c6         1 2GN       0.188800
     10 C18         27.9490    39.8900     1.7280 ca         1 2GN      -0.277500
     11 C16         28.9330    38.9170     2.0070 ca         1 2GN       0.034000
     12 C22         27.2370    39.8280     0.5160 ca         1 2GN       0.239000
     13 Cl2         25.9630    40.9700     0.0810 cl         1 2GN      -0.153000
     14 C19         27.5130    38.8000    -0.3930 ca         1 2GN      -0.129000
     15 C17         28.4930    37.8330    -0.1250 ca         1 2GN       0.196000
     16 Cl1         28.6640    36.5550    -1.3320 cl         1 2GN      -0.162000
     17 C14         29.2340    37.8860     1.0860 ca         1 2GN      -0.167600
     18 C13         30.3200    36.9040     1.4820 c          1 2GN       0.617700
     19 O15         30.6000    36.7290     2.6600 o          1 2GN      -0.556100
     20 N10         30.9760    36.2240     0.4730 ns         1 2GN      -0.360100
     21 C5          31.9870    35.2600     0.5730 cc         1 2GN      -0.031400
     22 C2          32.5560    34.6750    -0.5430 cd         1 2GN      -0.114000
     23 C6          32.1830    34.9860    -1.8830 ch         1 2GN       0.348000
     24 N11         31.8640    35.2670    -2.9700 n1         1 2GN      -0.468000
     25 S7          32.6950    34.6270     2.0700 ss         1 2GN       0.321000
     26 C3          33.7500    33.5690     1.1560 cc         1 2GN      -0.256300
     27 C8          34.7630    32.6390     1.7730 c6         1 2GN       0.247100
     28 N12         35.1750    31.5920     0.7970 n3         1 2GN      -0.717600
     29 C9          35.5580    32.1950    -0.5140 c6         1 2GN       0.164800
     30 C4          34.3560    32.9010    -1.1910 c6         1 2GN      -0.012100
     31 C1          33.5630    33.7200    -0.1920 cd         1 2GN      -0.026300
     32 C32         36.2150    30.6960     1.3570 c3         1 2GN       0.210100
     33 C33         36.5160    29.4870     0.4740 ca         1 2GN      -0.071300
     34 C38         35.5260    28.5160     0.2430 ca         1 2GN      -0.106000
     35 C37         35.7940    27.4010    -0.5700 ca         1 2GN      -0.076500
     36 C36         37.0630    27.2330    -1.1730 ca         1 2GN      -0.129500
     37 C35         38.0530    28.2170    -0.9350 ca         1 2GN      -0.076500
     38 C34         37.7810    29.3300    -0.1210 ca         1 2GN      -0.106000
     39 C06         37.3400    26.0610    -2.0270 cc         1 2GN       0.563500
     40 N01         36.4570    25.1190    -2.2800 nd         1 2GN      -0.515800
     41 N02         38.5600    25.8870    -2.6150 nc         1 2GN      -0.383000
     42 N05         38.4880    24.7780    -3.2930 nd         1 2GN      -0.166800
     43 N04         37.2140    24.3110    -3.0900 na         1 2GN       0.099600
     44 H281        26.0130    41.7890     5.3370 h1         1 2GN       0.065950
     45 H282        25.5670    42.8710     4.0110 h1         1 2GN       0.065950
     46 H271        26.0150    38.7430     3.0280 h1         1 2GN       0.065950
     47 H272        26.3030    39.1890     4.7140 h1         1 2GN       0.065950
     48 H301        23.5980    42.2570     5.4550 h1         1 2GN       0.057700
     49 H302        23.3670    41.7640     3.7600 h1         1 2GN       0.057700
     50 H291        24.0450    38.2310     4.4970 h1         1 2GN       0.057700
     51 H292        23.6320    39.3670     3.1900 h1         1 2GN       0.057700
     52 H16         29.4850    38.9680     2.9460 ha         1 2GN       0.166000
     53 H19         26.9460    38.7430    -1.3170 ha         1 2GN       0.154000
     54 H10         30.6620    36.4780    -0.4560 hn         1 2GN       0.344500
     55 H81         35.6390    33.2200     2.0990 h1         1 2GN       0.044200
     56 H82         34.3390    32.1680     2.6730 h1         1 2GN       0.044200
     57 H91         36.3660    32.9260    -0.3670 h1         1 2GN       0.042200
     58 H92         35.9400    31.4310    -1.2070 h1         1 2GN       0.042200
     59 H321        37.1430    31.2600     1.5280 h1         1 2GN       0.041700
     60 H322        35.8900    30.3200     2.3360 h1         1 2GN       0.041700
     61 H41         34.7210    33.5250    -2.0170 hc         1 2GN       0.064700
     62 H42         33.7040    32.1410    -1.6400 hc         1 2GN       0.064700
     63 H38         34.5420    28.6290     0.6940 ha         1 2GN       0.122500
     64 H34         38.5570    30.0730     0.0450 ha         1 2GN       0.122500
     65 H37         35.0060    26.6680    -0.7300 ha         1 2GN       0.131500
     66 H35         39.0430    28.1270    -1.3790 ha         1 2GN       0.131500
     67 H04         36.8750    23.4450    -3.5090 hn         1 2GN       0.407000
@<TRIPOS>BOND
     1     1     2 2   
     2     2     3 2   
     3     2     4 1   
     4     2    10 1   
     5     4     5 1   
     6     4     9 1   
     7     5     6 1   
     8     5    44 1   
     9     5    45 1   
    10     6     7 1   
    11     6    48 1   
    12     6    49 1   
    13     7     8 1   
    14     8     9 1   
    15     8    50 1   
    16     8    51 1   
    17     9    46 1   
    18     9    47 1   
    19    10    11 ar  
    20    10    12 ar  
    21    11    17 ar  
    22    11    52 1   
    23    12    13 1   
    24    12    14 ar  
    25    14    15 ar  
    26    14    53 1   
    27    15    16 1   
    28    15    17 ar  
    29    17    18 1   
    30    18    19 2   
    31    18    20 1   
    32    20    21 1   
    33    20    54 1   
    34    21    22 2   
    35    21    25 1   
    36    22    23 1   
    37    22    31 1   
    38    23    24 3   
    39    25    26 1   
    40    26    27 1   
    41    26    31 2   
    42    27    28 1   
    43    27    55 1   
    44    27    56 1   
    45    28    29 1   
    46    28    32 1   
    47    29    30 1   
    48    29    57 1   
    49    29    58 1   
    50    30    31 1   
    51    30    61 1   
    52    30    62 1   
    53    32    33 1   
    54    32    59 1   
    55    32    60 1   
    56    33    34 ar  
    57    33    38 ar  
    58    34    35 ar  
    59    34    63 1   
    60    35    36 ar  
    61    35    65 1   
    62    36    37 ar  
    63    36    39 1   
    64    37    38 ar  
    65    37    66 1   
    66    38    64 1   
    67    39    40 2   
    68    39    41 1   
    69    40    43 1   
    70    41    42 2   
    71    42    43 1   
    72    43    67 1   
@<TRIPOS>SUBSTRUCTURE
     1 2GN         1 TEMP              0 ****  ****    0 ROOT
