@<TRIPOS>MOLECULE
2GQ
   30    32     1     0     0
SMALL
abcg2


@<TRIPOS>ATOM
      1 O            1.3210    -2.7420    -0.1520 o          1 2GQ      -0.563000
      2 C8           0.9840    -1.5660    -0.0850 c          1 2GQ       0.587600
      3 C3           1.8980    -0.4380    -0.0130 ca         1 2GQ      -0.208600
      4 C2           3.2800    -0.6650    -0.0240 ca         1 2GQ      -0.030000
      5 C1           4.1610     0.3890     0.0450 ca         1 2GQ      -0.160000
      6 N           -0.3520    -1.2380    -0.0760 ns         1 2GQ      -0.413100
      7 C7          -0.8790     0.0300     0.0010 cc         1 2GQ       0.344600
      8 C6          -0.0190     1.0990     0.0780 cd         1 2GQ      -0.381200
      9 C4           1.3810     0.8730     0.0670 ca         1 2GQ       0.071200
     10 C5           2.3080     1.9370     0.1400 ca         1 2GQ      -0.149000
     11 C            3.6600     1.6970     0.1300 ca         1 2GQ      -0.065000
     12 N1          -2.2200     0.1290    -0.0090 nh         1 2GQ      -0.716400
     13 C12         -3.1450    -0.9970     0.0120 c5         1 2GQ       0.226300
     14 C11         -4.4940    -0.3330     0.2660 c5         1 2GQ      -0.092900
     15 C10         -4.3380     1.0400    -0.3780 c5         1 2GQ      -0.092900
     16 C9          -2.8980     1.4150    -0.0520 c5         1 2GQ       0.226300
     17 H1           3.6480    -1.6810    -0.0890 ha         1 2GQ       0.129000
     18 H2           5.2290     0.2150     0.0360 ha         1 2GQ       0.115000
     19 H3          -0.4000     2.1060     0.1590 ha         1 2GQ       0.194000
     20 H5           1.9380     2.9530     0.2060 ha         1 2GQ       0.111000
     21 H6           4.3490     2.5300     0.1860 ha         1 2GQ       0.108000
     22 H7          -3.1410    -1.5320    -0.9440 h1         1 2GQ       0.050450
     23 H8          -2.8970    -1.7130     0.8000 h1         1 2GQ       0.050450
     24 H9          -5.3170    -0.9140    -0.1470 hc         1 2GQ       0.058700
     25 H10         -4.6620    -0.2310     1.3400 hc         1 2GQ       0.058700
     26 H11         -4.4710     0.9690    -1.4600 hc         1 2GQ       0.058700
     27 H12         -5.0480     1.7750    -0.0010 hc         1 2GQ       0.058700
     28 H13         -2.8250     1.9290     0.9120 h1         1 2GQ       0.050450
     29 H14         -2.4530     2.0640    -0.8090 h1         1 2GQ       0.050450
     30 H15         -0.9810    -2.0260    -0.1490 hn         1 2GQ       0.319500
@<TRIPOS>BOND
     1     1     2 2   
     2     2     3 1   
     3     2     6 1   
     4     3     4 ar  
     5     3     9 ar  
     6     4     5 ar  
     7     4    17 1   
     8     5    11 ar  
     9     5    18 1   
    10     6     7 1   
    11     6    30 1   
    12     7     8 2   
    13     7    12 1   
    14     8     9 1   
    15     8    19 1   
    16     9    10 ar  
    17    10    11 ar  
    18    10    20 1   
    19    11    21 1   
    20    12    13 1   
    21    12    16 1   
    22    13    14 1   
    23    13    22 1   
    24    13    23 1   
    25    14    15 1   
    26    14    24 1   
    27    14    25 1   
    28    15    16 1   
    29    15    26 1   
    30    15    27 1   
    31    16    28 1   
    32    16    29 1   
@<TRIPOS>SUBSTRUCTURE
     1 2GQ         1 TEMP              0 ****  ****    0 ROOT
