@<TRIPOS>MOLECULE
2GQ
   30    32     1     0     0
SMALL
No Charge or Current Charge


@<TRIPOS>ATOM
      1 O            1.2310    -2.7170    -0.4050 o          1 2GQ      -0.563000
      2 C8           0.8990    -1.5630    -0.1760 c          1 2GQ       0.587600
      3 C3           1.8850    -0.4320    -0.0900 ca         1 2GQ      -0.208600
      4 C2           3.2670    -0.6450    -0.2780 ca         1 2GQ      -0.030000
      5 C1           4.1650     0.4330    -0.1840 ca         1 2GQ      -0.160000
      6 N           -0.4160    -1.2390     0.0220 ns         1 2GQ      -0.413100
      7 C7          -0.9080     0.0190     0.2720 cc         1 2GQ       0.344600
      8 C6          -0.0200     1.0600     0.3800 cd         1 2GQ      -0.381200
      9 C4           1.4140     0.8610     0.1900 ca         1 2GQ       0.071200
     10 C5           2.3130     1.9370     0.2860 ca         1 2GQ      -0.149000
     11 C            3.6890     1.7240     0.0990 ca         1 2GQ      -0.065000
     12 N1          -2.2720     0.1670     0.4720 nh         1 2GQ      -0.716400
     13 C12         -3.1620    -1.0090     0.2630 c5         1 2GQ       0.226300
     14 C11         -4.5390    -0.3030     0.2040 c5         1 2GQ      -0.092900
     15 C10         -4.1960     0.9390    -0.6600 c5         1 2GQ      -0.092900
     16 C9          -2.8830     1.4420     0.0000 c5         1 2GQ       0.226300
     17 H1           3.6470    -1.6420    -0.4950 ha         1 2GQ       0.129000
     18 H2           5.2300     0.2660    -0.3290 ha         1 2GQ       0.115000
     19 H3          -0.3810     2.0490     0.6360 ha         1 2GQ       0.194000
     20 H5           1.9470     2.9370     0.5040 ha         1 2GQ       0.111000
     21 H6           4.3850     2.5580     0.1720 ha         1 2GQ       0.108000
     22 H7          -2.9480    -1.5250    -0.6830 h1         1 2GQ       0.050450
     23 H8          -3.1070    -1.7340     1.0870 h1         1 2GQ       0.050450
     24 H9          -5.3120    -0.9360    -0.2450 hc         1 2GQ       0.058700
     25 H10         -4.8840    -0.0160     1.2050 hc         1 2GQ       0.058700
     26 H11         -4.0260     0.6590    -1.7070 hc         1 2GQ       0.058700
     27 H12         -4.9850     1.6990    -0.6490 hc         1 2GQ       0.058700
     28 H13         -3.0930     2.1080     0.8490 h1         1 2GQ       0.050450
     29 H14         -2.2630     1.9880    -0.7240 h1         1 2GQ       0.050450
     30 H15         -1.0590    -2.0120    -0.0240 hn         1 2GQ       0.319500
@<TRIPOS>BOND
     1     1     2 2   
     2     2     3 1   
     3     2     6 1   
     4     3     4 ar  
     5     3     9 ar  
     6     4     5 ar  
     7     4    17 1   
     8     5    11 ar  
     9     5    18 1   
    10     6     7 1   
    11     6    30 1   
    12     7     8 2   
    13     7    12 1   
    14     8     9 1   
    15     8    19 1   
    16     9    10 ar  
    17    10    11 ar  
    18    10    20 1   
    19    11    21 1   
    20    12    13 1   
    21    12    16 1   
    22    13    14 1   
    23    13    22 1   
    24    13    23 1   
    25    14    15 1   
    26    14    24 1   
    27    14    25 1   
    28    15    16 1   
    29    15    26 1   
    30    15    27 1   
    31    16    28 1   
    32    16    29 1   
@<TRIPOS>SUBSTRUCTURE
     1 2GQ         1 TEMP              0 ****  ****    0 ROOT
