@<TRIPOS>MOLECULE
2GS
   27    27     1     0     0
SMALL
bcc


@<TRIPOS>ATOM
      1 C1          -3.0060     0.5930     0.9460 c6         1 2GS       0.357900
      2 C2          -2.1340     1.5730     0.1620 c6         1 2GS       0.034100
      3 C3          -0.7670     1.7410     0.8420 c6         1 2GS       0.131100
      4 C4          -0.1460     0.3710     1.0610 c6         1 2GS       0.135100
      5 C5          -1.0940    -0.6120     1.7690 c6         1 2GS       0.090100
      6 C6          -1.2630    -0.4200     3.2730 c3         1 2GS       0.114400
      7 O1          -4.2080     0.3500     0.3150 oh         1 2GS      -0.572800
      8 O2          -2.0140     1.0670    -1.1450 os         1 2GS      -0.403600
      9 O3          -0.9120     2.3930     2.0800 oh         1 2GS      -0.577800
     10 O4           1.0700     0.5320     1.7450 oh         1 2GS      -0.576800
     11 O5          -2.3470    -0.6480     1.1020 os         1 2GS      -0.438600
     12 O6          -1.9940    -1.4860     3.8420 oh         1 2GS      -0.597800
     13 H1          -3.2450     1.0320     1.9210 h2         1 2GS       0.077700
     14 H2          -2.6470     2.5470     0.1480 h1         1 2GS       0.050700
     15 H3          -0.1030     2.3170     0.1810 h1         1 2GS       0.048700
     16 H4           0.0270    -0.0390     0.0570 h1         1 2GS       0.054700
     17 H5          -0.6820    -1.6180     1.6290 h1         1 2GS       0.078700
     18 H61         -1.7180     0.5460     3.5100 h1         1 2GS       0.060200
     19 H62         -0.2790    -0.4290     3.7430 h1         1 2GS       0.060200
     20 H71         -1.7390     1.5440    -3.0940 h1         1 2GS       0.035033
     21 H72         -0.7890     2.5390    -1.9820 h1         1 2GS       0.035033
     22 H73         -2.5330     2.8160    -2.1470 h1         1 2GS       0.035033
     23 HO1         -4.0370     0.2140    -0.6260 ho         1 2GS       0.429000
     24 HO3         -1.2160     3.2920     1.9180 ho         1 2GS       0.404000
     25 HO4          1.5520    -0.3010     1.7100 ho         1 2GS       0.407000
     26 HO6         -2.8660    -1.5000     3.4340 ho         1 2GS       0.410000
     27 C7          -1.7550     2.0450    -2.1270 c3         1 2GS       0.116700
@<TRIPOS>BOND
     1     1     2 1   
     2     1     7 1   
     3     1    11 1   
     4     1    13 1   
     5     2     3 1   
     6     2     8 1   
     7     2    14 1   
     8     3     4 1   
     9     3     9 1   
    10     3    15 1   
    11     4     5 1   
    12     4    10 1   
    13     4    16 1   
    14     5     6 1   
    15     5    11 1   
    16     5    17 1   
    17     6    12 1   
    18     6    18 1   
    19     6    19 1   
    20     7    23 1   
    21     8    27 1   
    22     9    24 1   
    23    10    25 1   
    24    12    26 1   
    25    20    27 1   
    26    21    27 1   
    27    22    27 1   
@<TRIPOS>SUBSTRUCTURE
     1 2GS         1 TEMP              0 ****  ****    0 ROOT
