@<TRIPOS>MOLECULE
2GS
   27    27     1     0     0
SMALL
No Charge or Current Charge


@<TRIPOS>ATOM
      1 C1          -3.1000     0.4910     1.0300 c6         1 2GS       0.404300
      2 C2          -2.3480     1.5440     0.1590 c6         1 2GS       0.057300
      3 C3          -0.9480     1.8460     0.7860 c6         1 2GS       0.154300
      4 C4          -0.1580     0.5250     1.0580 c6         1 2GS       0.158300
      5 C5          -1.0270    -0.5550     1.7940 c6         1 2GS       0.113300
      6 C6          -1.2720    -0.3350     3.3260 c3         1 2GS       0.137600
      7 O1          -4.2800     0.0910     0.3580 oh         1 2GS      -0.695000
      8 O2          -2.2660     1.0670    -1.2170 os         1 2GS      -0.450000
      9 O3          -1.0790     2.5960     2.0040 oh         1 2GS      -0.700000
     10 O4           1.0550     0.8210     1.7840 oh         1 2GS      -0.699000
     11 O5          -2.3140    -0.7130     1.1370 os         1 2GS      -0.485000
     12 O6          -2.2100    -1.2990     3.8350 oh         1 2GS      -0.720000
     13 H1          -3.3350     0.9000     2.0260 h2         1 2GS       0.077700
     14 H2          -2.9370     2.4730     0.1590 h1         1 2GS       0.050700
     15 H3          -0.3640     2.4450     0.0740 h1         1 2GS       0.048700
     16 H4           0.1010     0.1070     0.0730 h1         1 2GS       0.054700
     17 H5          -0.4970    -1.5140     1.7010 h1         1 2GS       0.078700
     18 H61         -1.6500     0.6800     3.5010 h1         1 2GS       0.060200
     19 H62         -0.3110    -0.4170     3.8520 h1         1 2GS       0.060200
     20 H71         -1.8650     1.5410    -3.2140 h1         1 2GS       0.035033
     21 H72         -0.7110     2.2150    -2.0500 h1         1 2GS       0.035033
     22 H73         -2.3410     2.9200    -2.2010 h1         1 2GS       0.035033
     23 HO1         -3.9540    -0.0240    -0.5630 ho         1 2GS       0.528000
     24 HO3         -0.2000     2.4910     2.4420 ho         1 2GS       0.503000
     25 HO4          1.7090     0.1160     1.5640 ho         1 2GS       0.506000
     26 HO6         -2.7770    -1.5380     3.0620 ho         1 2GS       0.509000
     27 C7          -1.7700     1.9830    -2.2140 c3         1 2GS       0.139900
@<TRIPOS>BOND
     1     1     2 1   
     2     1     7 1   
     3     1    11 1   
     4     1    13 1   
     5     2     3 1   
     6     2     8 1   
     7     2    14 1   
     8     3     4 1   
     9     3     9 1   
    10     3    15 1   
    11     4     5 1   
    12     4    10 1   
    13     4    16 1   
    14     5     6 1   
    15     5    11 1   
    16     5    17 1   
    17     6    12 1   
    18     6    18 1   
    19     6    19 1   
    20     7    23 1   
    21     8    27 1   
    22     9    24 1   
    23    10    25 1   
    24    12    26 1   
    25    20    27 1   
    26    21    27 1   
    27    22    27 1   
@<TRIPOS>SUBSTRUCTURE
     1 2GS         1 TEMP              0 ****  ****    0 ROOT
