@<TRIPOS>MOLECULE
2GU
   56    60     1     0     0
SMALL
No Charge or Current Charge


@<TRIPOS>ATOM
      1 C1          -4.9970     0.5770     0.5330 ca         1 2GU      -0.037000
      2 C2          -5.9350    -0.4680     0.4380 ca         1 2GU      -0.206000
      3 C3          -7.1190    -0.4570     1.2020 ca         1 2GU       0.176900
      4 N1          -8.0200    -1.4550     1.1150 nb         1 2GU      -0.227000
      5 C4          -7.7160    -2.4460     0.2650 ca         1 2GU       0.386900
      6 N2          -8.6180    -3.4540     0.1680 nv         1 2GU      -1.060900
      7 N3          -6.6230    -2.5580    -0.5070 nb         1 2GU      -0.259000
      8 C5          -5.7140    -1.5630    -0.4270 ca         1 2GU       0.091000
      9 C6          -4.5370    -1.5890    -1.1930 ca         1 2GU      -0.110000
     10 C7          -3.5970    -0.5470    -1.1000 ca         1 2GU      -0.065000
     11 C8          -3.8070     0.5570    -0.2350 cp         1 2GU      -0.068000
     12 C9          -2.8070     1.6660    -0.1380 cp         1 2GU      -0.047000
     13 C10         -1.4150     1.4020    -0.1950 ca         1 2GU      -0.057000
     14 C11         -3.2250     3.0070     0.0130 ca         1 2GU      -0.057000
     15 C12         -2.2860     4.0440     0.0990 ca         1 2GU      -0.159000
     16 C13         -0.9120     3.7680     0.0390 ca         1 2GU       0.225000
     17 F1          -0.0600     4.8120     0.1450 f          1 2GU      -0.155000
     18 C14         -0.4460     2.4390    -0.1080 ca         1 2GU      -0.203600
     19 C15          1.0430     2.1320    -0.1710 c          1 2GU       0.628700
     20 O1           1.8840     3.0110    -0.3150 o          1 2GU      -0.555100
     21 N4           1.3770     0.7850    -0.0890 ns         1 2GU      -0.142000
     22 C16          2.6230     0.0990    -0.1030 ca         1 2GU       0.012000
     23 C17          3.8760     0.7430    -0.0500 ca         1 2GU      -0.183000
     24 C18          2.5880    -1.3040    -0.1510 ca         1 2GU      -0.197000
     25 C19          3.7730    -2.0590    -0.1600 ca         1 2GU      -0.044000
     26 C20          5.0310    -1.4190    -0.1330 ca         1 2GU      -0.144300
     27 C21          5.0640    -0.0090    -0.0670 ca         1 2GU       0.016000
     28 N5           6.3050     0.6520    -0.0010 ns         1 2GU      -0.149000
     29 C22          7.5460     0.0870    -0.1730 c          1 2GU       0.572000
     30 O2           8.5840     0.6960     0.0540 o          1 2GU      -0.542000
     31 C23          7.5390    -1.3690    -0.6520 c6         1 2GU      -0.159400
     32 C24          6.3590    -2.2200    -0.0910 c6         1 2GU       0.016300
     33 C25          6.2730    -3.5460    -0.9110 c3         1 2GU      -0.084100
     34 C26          6.6510    -2.6060     1.3880 c3         1 2GU      -0.084100
     35 H1          -5.1850     1.4030     1.2160 ha         1 2GU       0.115000
     36 H2          -7.3500     0.3560     1.8880 h4         1 2GU       0.022100
     37 H3          -9.5500    -3.3090     0.5500 hn         1 2GU       0.500000
     38 H4          -8.5410    -4.1030    -0.6130 hn         1 2GU       0.500000
     39 H5          -4.3520    -2.4210    -1.8680 ha         1 2GU       0.136000
     40 H6          -2.7040    -0.5910    -1.7190 ha         1 2GU       0.118000
     41 H7          -1.1060     0.3660    -0.3060 ha         1 2GU       0.124000
     42 H8          -4.2850     3.2480     0.0490 ha         1 2GU       0.123000
     43 H9          -2.6220     5.0710     0.2140 ha         1 2GU       0.139000
     44 H10          0.5830     0.1690     0.0130 hn         1 2GU       0.157000
     45 H11          3.9510     1.8230     0.0120 ha         1 2GU       0.151000
     46 H12          1.6320    -1.8220    -0.1770 ha         1 2GU       0.114000
     47 H13          3.6960    -3.1420    -0.1770 ha         1 2GU       0.116000
     48 H14          6.2850     1.6260     0.2690 hn         1 2GU       0.163000
     49 H15          7.3700    -1.2970    -1.7350 hc         1 2GU       0.075700
     50 H16          8.5260    -1.8270    -0.5040 hc         1 2GU       0.075700
     51 H17          5.9310    -3.3580    -1.9360 hc         1 2GU       0.039867
     52 H18          7.2530    -4.0350    -0.9770 hc         1 2GU       0.039867
     53 H19          5.5890    -4.2740    -0.4590 hc         1 2GU       0.039867
     54 H20          5.8460    -3.2210     1.8070 hc         1 2GU       0.039867
     55 H21          7.5840    -3.1750     1.4790 hc         1 2GU       0.039867
     56 H22          6.7440    -1.7160     2.0220 hc         1 2GU       0.039867
@<TRIPOS>BOND
     1     1     2 ar  
     2     1    11 ar  
     3     1    35 1   
     4     2     3 ar  
     5     2     8 ar  
     6     3     4 ar  
     7     3    36 1   
     8     4     5 ar  
     9     5     6 1   
    10     5     7 ar  
    11     6    37 1   
    12     6    38 1   
    13     7     8 ar  
    14     8     9 ar  
    15     9    10 ar  
    16     9    39 1   
    17    10    11 ar  
    18    10    40 1   
    19    11    12 1   
    20    12    13 ar  
    21    12    14 ar  
    22    13    18 ar  
    23    13    41 1   
    24    14    15 ar  
    25    14    42 1   
    26    15    16 ar  
    27    15    43 1   
    28    16    17 1   
    29    16    18 ar  
    30    18    19 1   
    31    19    20 2   
    32    19    21 1   
    33    21    22 1   
    34    21    44 1   
    35    22    23 ar  
    36    22    24 ar  
    37    23    27 ar  
    38    23    45 1   
    39    24    25 ar  
    40    24    46 1   
    41    25    26 ar  
    42    25    47 1   
    43    26    27 ar  
    44    26    32 1   
    45    27    28 1   
    46    28    29 1   
    47    28    48 1   
    48    29    30 2   
    49    29    31 1   
    50    31    32 1   
    51    31    49 1   
    52    31    50 1   
    53    32    33 1   
    54    32    34 1   
    55    33    51 1   
    56    33    52 1   
    57    33    53 1   
    58    34    54 1   
    59    34    55 1   
    60    34    56 1   
@<TRIPOS>SUBSTRUCTURE
     1 2GU         1 TEMP              0 ****  ****    0 ROOT
