@<TRIPOS>MOLECULE
2GU
   56    60     1     0     0
SMALL
bcc


@<TRIPOS>ATOM
      1 C1          -4.9630     0.4340     0.5470 ca         1 2GU      -0.055000
      2 C2          -5.9510    -0.4740     0.1300 ca         1 2GU      -0.336600
      3 C3          -7.1520    -0.7030     0.8410 ca         1 2GU       0.505200
      4 N1          -8.0580    -1.5460     0.4500 nb         1 2GU      -0.753000
      5 C4          -7.8060    -2.2280    -0.7060 ca         1 2GU       0.912900
      6 N2          -8.7520    -3.1140    -1.0640 nv         1 2GU      -0.950500
      7 N3          -6.7330    -2.1060    -1.4580 nb         1 2GU      -0.785000
      8 C5          -5.7930    -1.2330    -1.0490 ca         1 2GU       0.484600
      9 C6          -4.6100    -1.0490    -1.7980 ca         1 2GU      -0.193300
     10 C7          -3.6600    -0.1600    -1.3750 ca         1 2GU      -0.083000
     11 C8          -3.8140     0.6050    -0.1910 cp         1 2GU      -0.068000
     12 C9          -2.7670     1.5550     0.2260 cp         1 2GU      -0.047000
     13 C10         -1.4190     1.2620     0.0260 ca         1 2GU      -0.075000
     14 C11         -3.0930     2.7710     0.8260 ca         1 2GU      -0.075000
     15 C12         -2.1100     3.6660     1.2140 ca         1 2GU      -0.177000
     16 C13         -0.7870     3.3500     0.9860 ca         1 2GU       0.189900
     17 F1           0.1580     4.2130     1.3720 f          1 2GU      -0.119900
     18 C14         -0.4150     2.1510     0.3960 ca         1 2GU      -0.203600
     19 C15          1.0220     1.8480     0.1130 c          1 2GU       0.695700
     20 O1           1.7470     2.6520    -0.4410 o          1 2GU      -0.555100
     21 N4           1.4010     0.6110     0.5150 ns         1 2GU      -0.468100
     22 C16          2.6400    -0.0210     0.3710 ca         1 2GU       0.104600
     23 C17          3.6640     0.4580    -0.4400 ca         1 2GU      -0.201000
     24 C18          2.8280    -1.2120     1.0730 ca         1 2GU      -0.215000
     25 C19          4.0250    -1.8990     0.9690 ca         1 2GU      -0.062000
     26 C20          5.0670    -1.4380     0.1770 ca         1 2GU      -0.144300
     27 C21          4.8570    -0.2530    -0.5310 ca         1 2GU       0.108600
     28 N5           5.8710     0.2550    -1.3420 ns         1 2GU      -0.475100
     29 C22          6.9400    -0.4590    -1.7800 c          1 2GU       0.714500
     30 O2           7.7820     0.0340    -2.5110 o          1 2GU      -0.617500
     31 C23          6.9600    -1.8940    -1.3300 c6         1 2GU      -0.159400
     32 C24          6.4250    -2.1030     0.0910 c6         1 2GU       0.016300
     33 C25          6.3640    -3.6020     0.3700 c3         1 2GU      -0.084100
     34 C26          7.3650    -1.4380     1.1080 c3         1 2GU      -0.084100
     35 H1          -5.1150     0.9810     1.4700 ha         1 2GU       0.133000
     36 H2          -7.3460    -0.1560     1.7600 h4         1 2GU       0.022100
     37 H3          -9.6440    -3.0930    -0.6030 hn         1 2GU       0.444800
     38 H4          -8.7090    -3.5400    -1.9730 hn         1 2GU       0.444800
     39 H5          -4.4720    -1.6120    -2.7120 ha         1 2GU       0.154000
     40 H6          -2.7720    -0.0250    -1.9800 ha         1 2GU       0.136000
     41 H7          -1.1390     0.3220    -0.4340 ha         1 2GU       0.142000
     42 H8          -4.1300     3.0390     0.9790 ha         1 2GU       0.141000
     43 H9          -2.3710     4.6070     1.6810 ha         1 2GU       0.157000
     44 H10          0.7260     0.0940     1.0590 hn         1 2GU       0.323500
     45 H11          3.5490     1.3670    -1.0090 ha         1 2GU       0.169000
     46 H12          2.0380    -1.6020     1.7030 ha         1 2GU       0.132000
     47 H13          4.1420    -2.8130     1.5340 ha         1 2GU       0.134000
     48 H14          5.7660     1.1950    -1.6990 hn         1 2GU       0.329500
     49 H15          6.3430    -2.4590    -2.0390 hc         1 2GU       0.075700
     50 H16          7.9780    -2.2740    -1.4210 hc         1 2GU       0.075700
     51 H17          5.6520    -4.1030    -0.2870 hc         1 2GU       0.039867
     52 H18          7.3450    -4.0510     0.2050 hc         1 2GU       0.039867
     53 H19          6.0810    -3.8110     1.4020 hc         1 2GU       0.039867
     54 H20          7.0100    -1.6110     2.1250 hc         1 2GU       0.039867
     55 H21          8.3730    -1.8510     1.0300 hc         1 2GU       0.039867
     56 H22          7.4360    -0.3580     0.9630 hc         1 2GU       0.039867
@<TRIPOS>BOND
     1     1     2 ar  
     2     1    11 ar  
     3     1    35 1   
     4     2     3 ar  
     5     2     8 ar  
     6     3     4 ar  
     7     3    36 1   
     8     4     5 ar  
     9     5     6 1   
    10     5     7 ar  
    11     6    37 1   
    12     6    38 1   
    13     7     8 ar  
    14     8     9 ar  
    15     9    10 ar  
    16     9    39 1   
    17    10    11 ar  
    18    10    40 1   
    19    11    12 1   
    20    12    13 ar  
    21    12    14 ar  
    22    13    18 ar  
    23    13    41 1   
    24    14    15 ar  
    25    14    42 1   
    26    15    16 ar  
    27    15    43 1   
    28    16    17 1   
    29    16    18 ar  
    30    18    19 1   
    31    19    20 2   
    32    19    21 1   
    33    21    22 1   
    34    21    44 1   
    35    22    23 ar  
    36    22    24 ar  
    37    23    27 ar  
    38    23    45 1   
    39    24    25 ar  
    40    24    46 1   
    41    25    26 ar  
    42    25    47 1   
    43    26    27 ar  
    44    26    32 1   
    45    27    28 1   
    46    28    29 1   
    47    28    48 1   
    48    29    30 2   
    49    29    31 1   
    50    31    32 1   
    51    31    49 1   
    52    31    50 1   
    53    32    33 1   
    54    32    34 1   
    55    33    51 1   
    56    33    52 1   
    57    33    53 1   
    58    34    54 1   
    59    34    55 1   
    60    34    56 1   
@<TRIPOS>SUBSTRUCTURE
     1 2GU         1 TEMP              0 ****  ****    0 ROOT
