@<TRIPOS>MOLECULE
2GV
   56    60     1     0     0
SMALL
abcg2


@<TRIPOS>ATOM
      1 C12          3.6900    -2.8050    -0.1700 ca         1 2GV      -0.092000
      2 C13          3.5980    -3.7320    -1.2000 ca         1 2GV      -0.110000
      3 C14          3.6320    -3.3060    -2.5200 ca         1 2GV      -0.101000
      4 C15          3.7600    -1.9520    -2.8040 ca         1 2GV      -0.110000
      5 C16          3.8570    -1.0290    -1.7720 ca         1 2GV      -0.092000
      6 C17          3.8260    -1.4490    -0.4460 ca         1 2GV      -0.105300
      7 C7           3.9590    -0.4790     0.7010 c5         1 2GV       0.138000
      8 C8           5.4000    -0.0030     1.0460 c5         1 2GV       0.180000
      9 C9           6.5130    -0.8450     0.4650 c3         1 2GV      -0.098100
     10 C10          5.5490     0.1580     2.5500 c3         1 2GV      -0.098100
     11 O1           5.4610     1.3110     0.4470 os         1 2GV      -0.417100
     12 C11          4.2330     1.7890     0.2330 c          1 2GV       0.702100
     13 O2           4.0240     2.9330    -0.0820 o          1 2GV      -0.524000
     14 N2           3.3250     0.7960     0.4300 n          1 2GV      -0.268400
     15 C18          1.0650     0.3700     1.1730 ca         1 2GV      -0.115500
     16 C19          1.9360     0.9390     0.2490 ca         1 2GV      -0.019000
     17 C20          1.4110     1.6140    -0.8480 ca         1 2GV      -0.115500
     18 C21          0.0400     1.7300    -1.0010 ca         1 2GV      -0.094500
     19 C5          -0.8470     1.1730    -0.0780 cp         1 2GV      -0.013000
     20 C22         -0.3040     0.4850     1.0080 ca         1 2GV      -0.094500
     21 C1          -2.3020     1.3100    -0.2400 cp         1 2GV      -0.182000
     22 C23         -3.1940     0.3190     0.1500 ca         1 2GV       0.027000
     23 C24         -4.5680     0.4630     0.0060 cp         1 2GV      -0.306500
     24 C25         -5.0320     1.6870    -0.5590 ca         1 2GV       0.672900
     25 N3          -4.1710     2.6460    -0.9300 nb         1 2GV      -0.780000
     26 C26         -2.8780     2.4590    -0.7810 ca         1 2GV       0.435900
     27 N1          -4.8670    -1.7180     0.9480 nb         1 2GV      -0.210500
     28 C2          -5.6470    -2.7120     1.3340 ca         1 2GV       0.128400
     29 C3          -7.0280    -2.6640     1.2150 ca         1 2GV      -0.237000
     30 C4          -7.5430    -1.5070     0.6660 ca         1 2GV       0.128400
     31 N5          -6.7680    -0.5030     0.2770 nb         1 2GV      -0.210500
     32 C6          -5.4500    -0.6360     0.4290 cp         1 2GV       0.233500
     33 N4          -6.3280     1.9660    -0.7490 nv         1 2GV      -1.072900
     34 H1           3.6520    -3.1420     0.8600 ha         1 2GV       0.115500
     35 H2           3.4910    -4.7840    -0.9700 ha         1 2GV       0.115500
     36 H3           3.5550    -4.0250    -3.3250 ha         1 2GV       0.114000
     37 H4           3.7850    -1.6130    -3.8310 ha         1 2GV       0.115500
     38 H5           3.9540     0.0220    -2.0160 ha         1 2GV       0.115500
     39 H6           3.5330    -0.9440     1.5940 h1         1 2GV       0.073700
     40 H7           6.4850    -0.8680    -0.6240 hc         1 2GV       0.053367
     41 H8           7.4820    -0.4560     0.7790 hc         1 2GV       0.053367
     42 H9           6.4350    -1.8700     0.8250 hc         1 2GV       0.053367
     43 H10          5.5340    -0.8190     3.0340 hc         1 2GV       0.053367
     44 H11          6.4950     0.6400     2.7960 hc         1 2GV       0.053367
     45 H12          4.7370     0.7520     2.9740 hc         1 2GV       0.053367
     46 H14          2.0620     2.0410    -1.5980 ha         1 2GV       0.121500
     47 H15         -0.3400     2.2390    -1.8780 ha         1 2GV       0.116500
     48 H16         -0.9540     0.0520     1.7590 ha         1 2GV       0.116500
     49 H17         -2.8220    -0.6100     0.5630 ha         1 2GV       0.138000
     50 H18         -2.2480     3.2880    -1.0920 h4         1 2GV       0.020100
     51 H19         -5.1560    -3.5800     1.7590 h4         1 2GV       0.023600
     52 H20         -7.6590    -3.4790     1.5340 ha         1 2GV       0.137000
     53 H21         -8.6110    -1.3740     0.5320 h4         1 2GV       0.023600
     54 H22         -7.0270     1.2770    -0.5200 hn         1 2GV       0.515000
     55 H23         -6.5770     2.8310    -1.1950 hn         1 2GV       0.515000
     56 H13          1.4500    -0.1500     2.0400 ha         1 2GV       0.121500
@<TRIPOS>BOND
     1     1     2 ar  
     2     1     6 ar  
     3     1    34 1   
     4     2     3 ar  
     5     2    35 1   
     6     3     4 ar  
     7     3    36 1   
     8     4     5 ar  
     9     4    37 1   
    10     5     6 ar  
    11     5    38 1   
    12     6     7 1   
    13     7     8 1   
    14     7    14 1   
    15     7    39 1   
    16     8     9 1   
    17     8    10 1   
    18     8    11 1   
    19     9    40 1   
    20     9    41 1   
    21     9    42 1   
    22    10    43 1   
    23    10    44 1   
    24    10    45 1   
    25    11    12 1   
    26    12    13 2   
    27    12    14 1   
    28    14    16 1   
    29    15    16 ar  
    30    15    20 ar  
    31    15    56 1   
    32    16    17 ar  
    33    17    18 ar  
    34    17    46 1   
    35    18    19 ar  
    36    18    47 1   
    37    19    20 ar  
    38    19    21 1   
    39    20    48 1   
    40    21    22 ar  
    41    21    26 ar  
    42    22    23 ar  
    43    22    49 1   
    44    23    24 ar  
    45    23    32 1   
    46    24    25 ar  
    47    24    33 1   
    48    25    26 ar  
    49    26    50 1   
    50    27    28 ar  
    51    27    32 ar  
    52    28    29 ar  
    53    28    51 1   
    54    29    30 ar  
    55    29    52 1   
    56    30    31 ar  
    57    30    53 1   
    58    31    32 ar  
    59    33    54 1   
    60    33    55 1   
@<TRIPOS>SUBSTRUCTURE
     1 2GV         1 TEMP              0 ****  ****    0 ROOT
