@<TRIPOS>MOLECULE
2GV
   56    60     1     0     0
SMALL
No Charge or Current Charge


@<TRIPOS>ATOM
      1 C12          3.7060    -2.8650    -0.1540 ca         1 2GV      -0.092000
      2 C13          3.6590    -3.8250    -1.1800 ca         1 2GV      -0.110000
      3 C14          3.8870    -3.4440    -2.5110 ca         1 2GV      -0.101000
      4 C15          4.1600    -2.1020    -2.8150 ca         1 2GV      -0.110000
      5 C16          4.2070    -1.1420    -1.7900 ca         1 2GV      -0.092000
      6 C17          3.9830    -1.5120    -0.4420 ca         1 2GV      -0.105300
      7 C7           4.0170    -0.4980     0.7160 c5         1 2GV       0.138000
      8 C8           5.4730     0.0490     0.9660 c5         1 2GV       0.180000
      9 C9           6.6490    -0.8390     0.4800 c3         1 2GV      -0.098100
     10 C10          5.6880     0.3720     2.4670 c3         1 2GV      -0.098100
     11 O1           5.5200     1.3050     0.2570 os         1 2GV      -0.417100
     12 C11          4.2540     1.7600     0.0260 c          1 2GV       0.702100
     13 O2           3.9990     2.8920    -0.3590 o          1 2GV      -0.524000
     14 N2           3.3380     0.7250     0.2630 n          1 2GV      -0.268400
     15 C18          1.0530     0.1730     1.0160 ca         1 2GV      -0.115500
     16 C19          1.9060     0.7900     0.0760 ca         1 2GV      -0.019000
     17 C20          1.3260     1.6740    -0.8590 ca         1 2GV      -0.115500
     18 C21         -0.0680     1.8380    -0.9300 ca         1 2GV      -0.094500
     19 C5          -0.9340     1.1650    -0.0360 cp         1 2GV      -0.013000
     20 C22         -0.3410     0.3380     0.9460 ca         1 2GV      -0.094500
     21 C1          -2.4190     1.3400    -0.1100 cp         1 2GV      -0.182000
     22 C23         -3.3070     0.2910     0.2190 ca         1 2GV       0.027000
     23 C24         -4.7110     0.4800     0.1380 cp         1 2GV      -0.306500
     24 C25         -5.1220     1.7680    -0.2730 ca         1 2GV       0.672900
     25 N3          -4.3330     2.7760    -0.5940 nb         1 2GV      -0.780000
     26 C26         -3.0020     2.5640    -0.5160 ca         1 2GV       0.435900
     27 N1          -5.1880    -1.5980     1.3160 nb         1 2GV      -0.210500
     28 C2          -6.0060    -2.6250     1.6210 ca         1 2GV       0.128400
     29 C3          -7.3010    -2.7050     1.0890 ca         1 2GV      -0.237000
     30 C4          -7.7100    -1.6750     0.2290 ca         1 2GV       0.128400
     31 N5          -6.8880    -0.6500    -0.0720 nb         1 2GV      -0.210500
     32 C6          -5.6530    -0.6420     0.4800 cp         1 2GV       0.233500
     33 N4          -6.3730     2.1910    -0.3890 nv         1 2GV      -1.072900
     34 H1           3.5260    -3.1770     0.8720 ha         1 2GV       0.115500
     35 H2           3.4460    -4.8650    -0.9410 ha         1 2GV       0.115500
     36 H3           3.8510    -4.1870    -3.3050 ha         1 2GV       0.114000
     37 H4           4.3370    -1.8040    -3.8460 ha         1 2GV       0.115500
     38 H5           4.4240    -0.1090    -2.0520 ha         1 2GV       0.115500
     39 H6           3.5790    -0.9140     1.6320 h1         1 2GV       0.073700
     40 H7           6.6600    -0.9440    -0.6100 hc         1 2GV       0.053367
     41 H8           7.6160    -0.4110     0.7690 hc         1 2GV       0.053367
     42 H9           6.5900    -1.8450     0.9140 hc         1 2GV       0.053367
     43 H10          5.6790    -0.5430     3.0720 hc         1 2GV       0.053367
     44 H11          6.6490     0.8720     2.6350 hc         1 2GV       0.053367
     45 H12          4.9000     1.0300     2.8520 hc         1 2GV       0.053367
     46 H14          1.9450     2.2090    -1.5730 ha         1 2GV       0.121500
     47 H15         -0.4780     2.4910    -1.6970 ha         1 2GV       0.116500
     48 H16         -0.9630    -0.1630     1.6830 ha         1 2GV       0.116500
     49 H17         -2.9020    -0.6750     0.5110 ha         1 2GV       0.138000
     50 H18         -2.3750     3.4170    -0.7740 h4         1 2GV       0.020100
     51 H19         -5.6170    -3.3870     2.2960 h4         1 2GV       0.023600
     52 H20         -7.9620    -3.5320     1.3330 ha         1 2GV       0.137000
     53 H21         -8.7000    -1.6670    -0.2230 h4         1 2GV       0.023600
     54 H22         -7.0650     1.4720    -0.5580 hn         1 2GV       0.515000
     55 H23         -6.4620     3.0370    -0.9360 hn         1 2GV       0.515000
     56 H13          1.4600    -0.4420     1.8130 ha         1 2GV       0.121500
@<TRIPOS>BOND
     1     1     2 ar  
     2     1     6 ar  
     3     1    34 1   
     4     2     3 ar  
     5     2    35 1   
     6     3     4 ar  
     7     3    36 1   
     8     4     5 ar  
     9     4    37 1   
    10     5     6 ar  
    11     5    38 1   
    12     6     7 1   
    13     7     8 1   
    14     7    14 1   
    15     7    39 1   
    16     8     9 1   
    17     8    10 1   
    18     8    11 1   
    19     9    40 1   
    20     9    41 1   
    21     9    42 1   
    22    10    43 1   
    23    10    44 1   
    24    10    45 1   
    25    11    12 1   
    26    12    13 2   
    27    12    14 1   
    28    14    16 1   
    29    15    16 ar  
    30    15    20 ar  
    31    15    56 1   
    32    16    17 ar  
    33    17    18 ar  
    34    17    46 1   
    35    18    19 ar  
    36    18    47 1   
    37    19    20 ar  
    38    19    21 1   
    39    20    48 1   
    40    21    22 ar  
    41    21    26 ar  
    42    22    23 ar  
    43    22    49 1   
    44    23    24 ar  
    45    23    32 1   
    46    24    25 ar  
    47    24    33 1   
    48    25    26 ar  
    49    26    50 1   
    50    27    28 ar  
    51    27    32 ar  
    52    28    29 ar  
    53    28    51 1   
    54    29    30 ar  
    55    29    52 1   
    56    30    31 ar  
    57    30    53 1   
    58    31    32 ar  
    59    33    54 1   
    60    33    55 1   
@<TRIPOS>SUBSTRUCTURE
     1 2GV         1 TEMP              0 ****  ****    0 ROOT
