@<TRIPOS>MOLECULE
2GW
   68    71     1     0     0
SMALL
No Charge or Current Charge


@<TRIPOS>ATOM
      1 CAP          4.8060     2.9180    -1.0430 ca         1 2GW      -0.095500
      2 CAN          5.3400     4.0660    -1.6540 ca         1 2GW      -0.118000
      3 CAM          5.0280     5.3400    -1.1510 ca         1 2GW      -0.124000
      4 CAO          4.1850     5.4640    -0.0350 ca         1 2GW      -0.118000
      5 CAQ          3.6520     4.3160     0.5760 ca         1 2GW      -0.095500
      6 CBA          3.9560     3.0340     0.0760 ca         1 2GW       0.005200
      7 CBB          3.3890     1.8410     0.7090 cc         1 2GW      -0.265400
      8 CAR          2.7850     0.9390    -0.1400 cd         1 2GW       0.045600
      9 CBC          3.4260     1.5920     2.1620 c          1 2GW       0.603200
     10 OAA          3.9380     2.3300     2.9870 o          1 2GW      -0.556000
     11 NAU          2.8410     0.4240     2.5320 ns         1 2GW      -0.469500
     12 CBD          2.2430    -0.5120     1.7480 c          1 2GW       0.609000
     13 OAB          1.8120    -1.5360     2.2500 o          1 2GW      -0.481000
     14 NBN          2.2030    -0.2230     0.3650 n          1 2GW      -0.302000
     15 C1           1.4880    -1.1210    -0.5810 c5         1 2GW       0.349700
     16 O4           0.3010    -1.7090    -0.0460 os         1 2GW      -0.401000
     17 C2           2.3980    -2.3410    -0.9040 c5         1 2GW       0.068300
     18 O2           3.5260    -2.0560    -1.7670 oh         1 2GW      -0.727000
     19 C3           1.3380    -3.2120    -1.6380 c5         1 2GW       0.102300
     20 O3           1.2750    -2.7840    -3.0010 oh         1 2GW      -0.713000
     21 C4           0.0140    -2.9000    -0.8290 c5         1 2GW       0.166300
     22 C5          -0.4270    -4.0610     0.1090 c3         1 2GW       0.216600
     23 O5          -1.8630    -4.1450     0.1570 os         1 2GW      -0.561400
     24 PBO         -2.7200    -3.4380     1.3270 p5         1 2GW       1.454800
     25 OAK         -4.1040    -3.9970     1.2900 o          1 2GW      -0.843000
     26 OAC         -2.0510    -3.6530     2.6450 o          1 2GW      -0.843000
     27 OAZ         -2.6280    -1.9600     0.7950 os         1 2GW      -0.687800
     28 PBP         -3.6830    -1.0240     1.4900 p5         1 2GW       1.487800
     29 OAL         -4.9480    -0.9530     0.7020 o          1 2GW      -0.835000
     30 OAD         -3.9110    -1.2450     2.9470 o          1 2GW      -0.835000
     31 O1          -2.8670     0.3400     1.2930 os         1 2GW      -0.611400
     32 C7          -3.2710     1.3380     0.3430 c6         1 2GW       0.425300
     33 O10         -2.3680     2.4530     0.5040 os         1 2GW      -0.451000
     34 C11         -0.9880     2.1600     0.1350 c6         1 2GW       0.183300
     35 C6          -0.0990     3.3950     0.4950 c3         1 2GW       0.170600
     36 O6          -0.1330     3.7350     1.8940 oh         1 2GW      -0.692000
     37 C10         -0.8780     1.7610    -1.3750 c6         1 2GW       0.144300
     38 O7          -1.1990     2.8420    -2.2710 oh         1 2GW      -0.734000
     39 C9          -1.8530     0.5790    -1.6650 c6         1 2GW       0.114300
     40 O9          -1.8890     0.2840    -3.0730 oh         1 2GW      -0.709000
     41 C8          -3.2960     0.9140    -1.1900 c6         1 2GW       0.115300
     42 O8          -4.2000    -0.1650    -1.5590 oh         1 2GW      -0.813000
     43 H1           5.0620     1.9370    -1.4370 ha         1 2GW       0.119500
     44 H2           5.9960     3.9680    -2.5160 ha         1 2GW       0.103000
     45 H3           5.4410     6.2290    -1.6230 ha         1 2GW       0.099000
     46 H4           3.9430     6.4500     0.3570 ha         1 2GW       0.103000
     47 H5           2.9980     4.4230     1.4370 ha         1 2GW       0.119500
     48 H6           2.7080     1.0590    -1.2190 h4         1 2GW       0.203000
     49 H7           2.8650     0.2180     3.5170 hn         1 2GW       0.346500
     50 H8           1.2490    -0.5490    -1.4860 h2         1 2GW       0.055700
     51 H9           2.7230    -2.8380     0.0230 h1         1 2GW       0.090700
     52 H10          4.2710    -1.7480    -1.1960 ho         1 2GW       0.506000
     53 H11          1.6070    -4.2770    -1.5900 h1         1 2GW       0.059700
     54 H12          2.1870    -2.4280    -3.1560 ho         1 2GW       0.498000
     55 H13         -0.8080    -2.6830    -1.5240 h1         1 2GW       0.101700
     56 H14         -0.0320    -5.0060    -0.2840 h1         1 2GW       0.023200
     57 H15          0.0110    -3.9160     1.1050 h1         1 2GW       0.023200
     58 H18         -4.2830     1.6800     0.6120 h2         1 2GW       0.066700
     59 H19         -0.6270     1.3170     0.7440 h1         1 2GW       0.086700
     60 H20          0.9330     3.1770     0.1920 h1         1 2GW       0.012700
     61 H21         -0.4370     4.2530    -0.1000 h1         1 2GW       0.012700
     62 H22          0.2270     4.6460     1.9760 ho         1 2GW       0.474000
     63 H23          0.1480     1.4200    -1.5690 h1         1 2GW       0.021700
     64 H24         -1.4950     2.3740    -3.0890 ho         1 2GW       0.505000
     65 H25         -1.5100    -0.2990    -1.1010 h1         1 2GW       0.080700
     66 H26         -2.7610    -0.1670    -3.1860 ho         1 2GW       0.469000
     67 H27         -3.6180     1.8130    -1.7370 h1         1 2GW       0.032700
     68 H28         -4.6040    -0.5190    -0.6910 ho         1 2GW       0.602000
@<TRIPOS>BOND
     1     1     2 ar  
     2     1     6 ar  
     3     1    43 1   
     4     2     3 ar  
     5     2    44 1   
     6     3     4 ar  
     7     3    45 1   
     8     4     5 ar  
     9     4    46 1   
    10     5     6 ar  
    11     5    47 1   
    12     6     7 1   
    13     7     8 2   
    14     7     9 1   
    15     8    14 1   
    16     8    48 1   
    17     9    10 2   
    18     9    11 1   
    19    11    12 1   
    20    11    49 1   
    21    12    13 2   
    22    12    14 1   
    23    14    15 1   
    24    15    16 1   
    25    15    17 1   
    26    15    50 1   
    27    16    21 1   
    28    17    18 1   
    29    17    19 1   
    30    17    51 1   
    31    18    52 1   
    32    19    20 1   
    33    19    21 1   
    34    19    53 1   
    35    20    54 1   
    36    21    22 1   
    37    21    55 1   
    38    22    23 1   
    39    22    56 1   
    40    22    57 1   
    41    23    24 1   
    42    24    25 1   
    43    24    26 1   
    44    24    27 1   
    45    27    28 1   
    46    28    29 1   
    47    28    30 1   
    48    28    31 1   
    49    31    32 1   
    50    32    33 1   
    51    32    41 1   
    52    32    58 1   
    53    33    34 1   
    54    34    35 1   
    55    34    37 1   
    56    34    59 1   
    57    35    36 1   
    58    35    60 1   
    59    35    61 1   
    60    36    62 1   
    61    37    38 1   
    62    37    39 1   
    63    37    63 1   
    64    38    64 1   
    65    39    40 1   
    66    39    41 1   
    67    39    65 1   
    68    40    66 1   
    69    41    42 1   
    70    41    67 1   
    71    42    68 1   
@<TRIPOS>SUBSTRUCTURE
     1 2GW         1 TEMP              0 ****  ****    0 ROOT
