@<TRIPOS>MOLECULE
2GW
   68    71     1     0     0
SMALL
abcg2


@<TRIPOS>ATOM
      1 CAP          6.8690     2.1190    -1.3000 ca         1 2GW      -0.095500
      2 CAN          7.6630     3.0720    -1.9240 ca         1 2GW      -0.118000
      3 CAM          7.3460     4.4190    -1.8200 ca         1 2GW      -0.124000
      4 CAO          6.2260     4.8060    -1.0940 ca         1 2GW      -0.118000
      5 CAQ          5.4290     3.8540    -0.4750 ca         1 2GW      -0.095500
      6 CBA          5.7400     2.4970    -0.5740 ca         1 2GW       0.005200
      7 CBB          4.8880     1.4720     0.0540 cc         1 2GW      -0.265400
      8 CAR          4.4800     0.3850    -0.6300 cd         1 2GW       0.045600
      9 CBC          4.4880     1.5920     1.4440 c          1 2GW       0.603200
     10 OAA          4.7840     2.5020     2.1940 o          1 2GW      -0.556000
     11 NAU          3.7100     0.5410     1.8930 ns         1 2GW      -0.469500
     12 CBD          3.3070    -0.5790     1.2130 c          1 2GW       0.609000
     13 OAB          2.6440    -1.4430     1.7410 o          1 2GW      -0.481000
     14 NBN          3.7250    -0.6250    -0.1040 n          1 2GW      -0.302000
     15 C1           3.3350    -1.7290    -0.9710 c5         1 2GW       0.349700
     16 O4           1.9500    -1.7840    -1.1040 os         1 2GW      -0.401000
     17 C2           3.7900    -3.1220    -0.5380 c5         1 2GW       0.068300
     18 O2           5.1220    -3.3140    -0.9200 oh         1 2GW      -0.727000
     19 C3           2.7780    -3.9880    -1.2970 c5         1 2GW       0.102300
     20 O3           3.1340    -4.1010    -2.6510 oh         1 2GW      -0.713000
     21 C4           1.5110    -3.1450    -1.1930 c5         1 2GW       0.166300
     22 C5           0.6550    -3.5260    -0.0040 c3         1 2GW       0.216600
     23 O5          -0.4450    -2.6440     0.0510 os         1 2GW      -0.561400
     24 PBO         -1.6440    -2.9970     1.1170 p5         1 2GW       1.454800
     25 OAK         -2.4500    -4.1510     0.6130 o          1 2GW      -0.843000
     26 OAC         -1.1070    -2.9900     2.5110 o          1 2GW      -0.843000
     27 OAZ         -2.4510    -1.5840     0.8440 os         1 2GW      -0.687800
     28 PBP         -4.0640    -1.4700     0.6590 p5         1 2GW       1.487800
     29 OAL         -4.4770    -1.8450    -0.7440 o          1 2GW      -0.835000
     30 OAD         -4.7850    -2.0610     1.8220 o          1 2GW      -0.835000
     31 O1          -4.0690     0.1750     0.7430 os         1 2GW      -0.611400
     32 C7          -5.1700     0.9130     0.2570 c6         1 2GW       0.425300
     33 O10         -5.3850     1.9980     1.0960 os         1 2GW      -0.451000
     34 C11         -4.3400     2.9620     1.1390 c6         1 2GW       0.183300
     35 C6          -4.7450     4.0330     2.1290 c3         1 2GW       0.170600
     36 O6          -4.7690     3.4680     3.4190 oh         1 2GW      -0.692000
     37 C10         -4.0370     3.5320    -0.2390 c6         1 2GW       0.144300
     38 O7          -5.1210     4.3210    -0.6670 oh         1 2GW      -0.734000
     39 C9          -3.7630     2.3760    -1.1970 c6         1 2GW       0.114300
     40 O9          -3.5600     2.9180    -2.4820 oh         1 2GW      -0.709000
     41 C8          -4.9310     1.3940    -1.1810 c6         1 2GW       0.115300
     42 O8          -4.7260     0.3720    -2.1190 oh         1 2GW      -0.813000
     43 H1           7.1390     1.0730    -1.3680 ha         1 2GW       0.119500
     44 H2           8.5370     2.7600    -2.4810 ha         1 2GW       0.103000
     45 H3           7.9680     5.1640    -2.2990 ha         1 2GW       0.099000
     46 H4           5.9670     5.8530    -1.0130 ha         1 2GW       0.103000
     47 H5           4.5500     4.1720     0.0690 ha         1 2GW       0.119500
     48 H6           4.7380     0.2640    -1.6740 h4         1 2GW       0.203000
     49 H7           3.4160     0.5800     2.8620 hn         1 2GW       0.346500
     50 H8           3.8080    -1.5030    -1.9340 h2         1 2GW       0.055700
     51 H9           3.6540    -3.2630     0.5360 h1         1 2GW       0.090700
     52 H10          5.4970    -4.0230    -0.3890 ho         1 2GW       0.506000
     53 H11          2.6530    -4.9730    -0.8300 h1         1 2GW       0.059700
     54 H12          4.0770    -4.2990    -2.6920 ho         1 2GW       0.498000
     55 H13          0.9110    -3.2480    -2.1030 h1         1 2GW       0.101700
     56 H14          0.3270    -4.5620    -0.1540 h1         1 2GW       0.023200
     57 H15          1.2340    -3.4920     0.9230 h1         1 2GW       0.023200
     58 H18         -6.0910     0.3180     0.3000 h2         1 2GW       0.066700
     59 H19         -3.4110     2.5000     1.5000 h1         1 2GW       0.086700
     60 H20         -4.0130     4.8490     2.0600 h1         1 2GW       0.012700
     61 H21         -5.7190     4.4490     1.8500 h1         1 2GW       0.012700
     62 H22         -5.0610     4.1470     4.0340 ho         1 2GW       0.474000
     63 H23         -3.1220     4.1380    -0.1500 h1         1 2GW       0.021700
     64 H24         -4.9720     4.5480    -1.5910 ho         1 2GW       0.505000
     65 H25         -2.8570     1.8590    -0.8500 h1         1 2GW       0.080700
     66 H26         -3.5710     2.1890    -3.1130 ho         1 2GW       0.469000
     67 H27         -5.8390     1.9420    -1.4650 h1         1 2GW       0.032700
     68 H28         -4.5900    -0.5000    -1.6690 ho         1 2GW       0.602000
@<TRIPOS>BOND
     1     1     2 ar  
     2     1     6 ar  
     3     1    43 1   
     4     2     3 ar  
     5     2    44 1   
     6     3     4 ar  
     7     3    45 1   
     8     4     5 ar  
     9     4    46 1   
    10     5     6 ar  
    11     5    47 1   
    12     6     7 1   
    13     7     8 2   
    14     7     9 1   
    15     8    14 1   
    16     8    48 1   
    17     9    10 2   
    18     9    11 1   
    19    11    12 1   
    20    11    49 1   
    21    12    13 2   
    22    12    14 1   
    23    14    15 1   
    24    15    16 1   
    25    15    17 1   
    26    15    50 1   
    27    16    21 1   
    28    17    18 1   
    29    17    19 1   
    30    17    51 1   
    31    18    52 1   
    32    19    20 1   
    33    19    21 1   
    34    19    53 1   
    35    20    54 1   
    36    21    22 1   
    37    21    55 1   
    38    22    23 1   
    39    22    56 1   
    40    22    57 1   
    41    23    24 1   
    42    24    25 1   
    43    24    26 1   
    44    24    27 1   
    45    27    28 1   
    46    28    29 1   
    47    28    30 1   
    48    28    31 1   
    49    31    32 1   
    50    32    33 1   
    51    32    41 1   
    52    32    58 1   
    53    33    34 1   
    54    34    35 1   
    55    34    37 1   
    56    34    59 1   
    57    35    36 1   
    58    35    60 1   
    59    35    61 1   
    60    36    62 1   
    61    37    38 1   
    62    37    39 1   
    63    37    63 1   
    64    38    64 1   
    65    39    40 1   
    66    39    41 1   
    67    39    65 1   
    68    40    66 1   
    69    41    42 1   
    70    41    67 1   
    71    42    68 1   
@<TRIPOS>SUBSTRUCTURE
     1 2GW         1 TEMP              0 ****  ****    0 ROOT
