@<TRIPOS>MOLECULE
2GX
   32    33     1     0     0
SMALL
bcc


@<TRIPOS>ATOM
      1 C           21.8060    37.3210    30.2410 c          1 2GX       0.932600
      2 N           19.7080    36.6070    29.1690 n8         1 2GX      -0.864800
      3 O           21.5200    38.5150    30.4530 o          1 2GX      -0.825300
      4 CA          21.1570    36.6610    28.9940 c3         1 2GX       0.026500
      5 CB          21.4740    37.4860    27.7390 c3         1 2GX       0.026900
      6 CG          22.9630    37.6710    27.5470 ca         1 2GX      -0.032800
      7 CZ          25.7170    38.0540    27.1710 ca         1 2GX      -0.149500
      8 CAE         19.7180    36.0200    24.0720 ca         1 2GX      -0.149500
      9 CAH         19.7570    37.3800    24.3510 ca         1 2GX      -0.138750
     10 CAI         20.2370    35.1220    24.9950 ca         1 2GX      -0.138750
     11 CAL         20.3120    37.8320    25.5400 ca         1 2GX      -0.116500
     12 CAM         20.7950    35.5800    26.1820 ca         1 2GX      -0.116500
     13 CAO         20.8430    36.9430    26.4730 ca         1 2GX      -0.032800
     14 CD1         23.8190    36.5840    27.3700 ca         1 2GX      -0.116500
     15 CD2         23.5140    38.9500    27.5360 ca         1 2GX      -0.116500
     16 CE1         25.1810    36.7720    27.1840 ca         1 2GX      -0.138750
     17 CE2         24.8760    39.1440    27.3490 ca         1 2GX      -0.138750
     18 OXT         22.5480    36.5930    30.9290 o          1 2GX      -0.825300
     19 HN          19.2970    36.0770    28.4100 hn         1 2GX       0.312800
     20 HNA         19.4920    36.0790    30.0070 hn         1 2GX       0.312800
     21 HA          21.6000    35.6600    28.8840 h1         1 2GX       0.003700
     22 HB          21.0420    38.4750    27.9120 hc         1 2GX       0.090700
     23 HZ          26.7790    38.2010    27.0250 ha         1 2GX       0.110000
     24 HAI         20.2070    34.0590    24.7940 ha         1 2GX       0.112750
     25 HAL         20.3330    38.8950    25.7500 ha         1 2GX       0.130500
     26 HAM         21.1890    34.8580    26.8870 ha         1 2GX       0.130500
     27 HD1         23.4230    35.5750    27.3730 ha         1 2GX       0.130500
     28 HD2         22.8670    39.8080    27.6760 ha         1 2GX       0.130500
     29 HE1         25.8270    35.9140    27.0480 ha         1 2GX       0.112750
     30 HE2         25.2810    40.1480    27.3440 ha         1 2GX       0.112750
     31 HAE         19.2830    35.6630    23.1480 ha         1 2GX       0.110000
     32 HAH         19.3500    38.0910    23.6430 ha         1 2GX       0.112750
@<TRIPOS>BOND
     1     1     3 1   
     2     1     4 1   
     3     1    18 1   
     4     2     4 1   
     5     2    19 1   
     6     2    20 1   
     7     4     5 1   
     8     4    21 1   
     9     5     6 1   
    10     5    13 1   
    11     5    22 1   
    12     6    14 ar  
    13     6    15 ar  
    14     7    16 ar  
    15     7    17 ar  
    16     7    23 1   
    17     8     9 ar  
    18     8    10 ar  
    19     8    31 1   
    20     9    11 ar  
    21     9    32 1   
    22    10    12 ar  
    23    10    24 1   
    24    11    13 ar  
    25    11    25 1   
    26    12    13 ar  
    27    12    26 1   
    28    14    16 ar  
    29    14    27 1   
    30    15    17 ar  
    31    15    28 1   
    32    16    29 1   
    33    17    30 1   
@<TRIPOS>SUBSTRUCTURE
     1 2GX         1 TEMP              0 ****  ****    0 ROOT
