@<TRIPOS>MOLECULE
2GX
   32    33     1     0     0
SMALL
No Charge or Current Charge


@<TRIPOS>ATOM
      1 C           21.8210    37.2390    30.3380 c          1 2GX       0.722000
      2 N           19.6100    36.4860    29.1380 n8         1 2GX      -0.975200
      3 O           21.7350    38.4340    30.5980 o          1 2GX      -0.720000
      4 CA          21.1060    36.6770    29.0370 c3         1 2GX       0.026500
      5 CB          21.4800    37.5220    27.7740 c3         1 2GX       0.026900
      6 CG          22.9930    37.6780    27.5690 ca         1 2GX      -0.032800
      7 CZ          25.7700    38.0130    27.1510 ca         1 2GX      -0.131500
      8 CAE         19.6730    36.1080    24.0630 ca         1 2GX      -0.131500
      9 CAH         19.5910    37.4630    24.4210 ca         1 2GX      -0.120750
     10 CAI         20.3400    35.2020    24.9030 ca         1 2GX      -0.120750
     11 CAL         20.1720    37.9110    25.6190 ca         1 2GX      -0.098500
     12 CAM         20.9210    35.6500    26.1020 ca         1 2GX      -0.098500
     13 CAO         20.8370    37.0090    26.4770 ca         1 2GX      -0.032800
     14 CD1         23.8750    36.5790    27.6820 ca         1 2GX      -0.098500
     15 CD2         23.5220    38.9420    27.2320 ca         1 2GX      -0.098500
     16 CE1         25.2550    36.7480    27.4770 ca         1 2GX      -0.120750
     17 CE2         24.9020    39.1090    27.0270 ca         1 2GX      -0.120750
     18 OXT         22.3840    36.4380    31.0750 o          1 2GX      -0.720000
     19 HN          19.2700    36.0630    28.2670 hn         1 2GX       0.368000
     20 HNA         19.4070    35.7820    29.8570 hn         1 2GX       0.368000
     21 HA          21.5050    35.6660    28.8870 h1         1 2GX       0.003700
     22 HB          21.0700    38.5200    27.9720 hc         1 2GX       0.090700
     23 HZ          26.8380    38.1420    26.9920 ha         1 2GX       0.092000
     24 HAI         20.4090    34.1530    24.6250 ha         1 2GX       0.094750
     25 HAL         20.1040    38.9650    25.8810 ha         1 2GX       0.112500
     26 HAM         21.4400    34.9350    26.7350 ha         1 2GX       0.112500
     27 HD1         23.4980    35.5900    27.9250 ha         1 2GX       0.112500
     28 HD2         22.8610    39.8000    27.1290 ha         1 2GX       0.112500
     29 HE1         25.9250    35.8960    27.5680 ha         1 2GX       0.094750
     30 HE2         25.2980    40.0890    26.7710 ha         1 2GX       0.094750
     31 HAE         19.2240    35.7610    23.1350 ha         1 2GX       0.092000
     32 HAH         19.0790    38.1670    23.7690 ha         1 2GX       0.094750
@<TRIPOS>BOND
     1     1     3 1   
     2     1     4 1   
     3     1    18 1   
     4     2     4 1   
     5     2    19 1   
     6     2    20 1   
     7     4     5 1   
     8     4    21 1   
     9     5     6 1   
    10     5    13 1   
    11     5    22 1   
    12     6    14 ar  
    13     6    15 ar  
    14     7    16 ar  
    15     7    17 ar  
    16     7    23 1   
    17     8     9 ar  
    18     8    10 ar  
    19     8    31 1   
    20     9    11 ar  
    21     9    32 1   
    22    10    12 ar  
    23    10    24 1   
    24    11    13 ar  
    25    11    25 1   
    26    12    13 ar  
    27    12    26 1   
    28    14    16 ar  
    29    14    27 1   
    30    15    17 ar  
    31    15    28 1   
    32    16    29 1   
    33    17    30 1   
@<TRIPOS>SUBSTRUCTURE
     1 2GX         1 TEMP              0 ****  ****    0 ROOT
