@<TRIPOS>MOLECULE
2GY
   62    66     1     0     0
SMALL
No Charge or Current Charge


@<TRIPOS>ATOM
      1 C5          -7.0940    46.2590    28.2630 ca         1 2GY      -0.094500
      2 C7          -7.5670    46.6450    29.5290 ca         1 2GY      -0.112000
      3 C8          -6.8430    46.3080    30.6830 ca         1 2GY      -0.102000
      4 C9          -5.6470    45.5840    30.5680 ca         1 2GY      -0.112000
      5 C10         -5.1750    45.1980    29.3020 ca         1 2GY      -0.094500
      6 C12         -5.8920    45.5350    28.1290 ca         1 2GY      -0.105300
      7 C13         -5.4290    45.1200    26.7210 c5         1 2GY       0.139000
      8 C14         -4.0230    45.7420    26.3610 c5         1 2GY       0.172000
      9 C15         -3.6430    47.0720    27.0650 c3         1 2GY      -0.095600
     10 C16         -3.8960    45.9470    24.8290 c3         1 2GY      -0.095600
     11 O1          -3.0640    44.7200    26.7300 os         1 2GY      -0.426100
     12 C11         -3.6810    43.5050    26.7700 c          1 2GY       0.691100
     13 O2          -3.1100    42.4330    26.8910 o          1 2GY      -0.545000
     14 N2          -5.0560    43.6980    26.7650 n          1 2GY      -0.445800
     15 C17         -6.0290    42.5750    26.7930 c6         1 2GY       0.136700
     16 C18         -6.3470    42.1390    28.2480 c6         1 2GY      -0.089400
     17 C19         -7.3060    40.9230    28.2760 c6         1 2GY      -0.068400
     18 C20         -8.6260    41.2290    27.5170 c6         1 2GY      -0.000400
     19 C21         -8.3200    41.6880    26.0650 c6         1 2GY      -0.068400
     20 C22         -7.3570    42.9020    26.0510 c6         1 2GY      -0.089400
     21 C1          -9.5900    40.0340    27.5450 ca         1 2GY      -0.217300
     22 C23        -10.8450    40.1450    28.1680 ca         1 2GY       0.019000
     23 C24        -11.7180    39.0260    28.1890 cp         1 2GY      -0.297500
     24 C25        -11.2310    37.8640    27.5470 ca         1 2GY       0.655900
     25 N3         -10.0570    37.7290    26.9570 nb         1 2GY      -0.772000
     26 C26         -9.2430    38.8040    26.9580 ca         1 2GY       0.422900
     27 N1         -13.6050    40.3600    28.9660 nb         1 2GY      -0.209000
     28 C2         -14.7990    40.4760    29.5790 ca         1 2GY       0.126900
     29 C3         -15.4650    39.3530    30.0930 ca         1 2GY      -0.236000
     30 C4         -14.8380    38.1070    29.9420 ca         1 2GY       0.126900
     31 N5         -13.6440    37.9960    29.3270 nb         1 2GY      -0.209000
     32 C6         -13.0640    39.1250    28.8570 cp         1 2GY       0.231500
     33 N4         -11.8800    36.7150    27.4090 nv         1 2GY      -1.072900
     34 H1          -7.6700    46.5260    27.3780 ha         1 2GY       0.117500
     35 H2          -8.4960    47.2050    29.6140 ha         1 2GY       0.116000
     36 H3          -7.2090    46.6060    31.6630 ha         1 2GY       0.115000
     37 H4          -5.0850    45.3190    31.4610 ha         1 2GY       0.116000
     38 H5          -4.2470    44.6350    29.2390 ha         1 2GY       0.117500
     39 H6          -6.1830    45.3430    25.9550 h1         1 2GY       0.069700
     40 H7          -3.5070    46.9420    28.1440 hc         1 2GY       0.053033
     41 H8          -2.7020    47.4750    26.6730 hc         1 2GY       0.053033
     42 H9          -4.4180    47.8330    26.9130 hc         1 2GY       0.053033
     43 H10         -4.5880    46.7210    24.4760 hc         1 2GY       0.053033
     44 H11         -2.8810    46.2540    24.5490 hc         1 2GY       0.053033
     45 H12         -4.1260    45.0250    24.2800 hc         1 2GY       0.053033
     46 H13         -5.5670    41.7190    26.2780 h1         1 2GY       0.078700
     47 H14         -5.4170    41.8860    28.7740 hc         1 2GY       0.049200
     48 H15         -6.8030    42.9710    28.8010 hc         1 2GY       0.049200
     49 H16         -7.5310    40.6550    29.3170 hc         1 2GY       0.046950
     50 H17         -6.8040    40.0530    27.8320 hc         1 2GY       0.046950
     51 H18         -9.1090    42.0730    28.0300 hc         1 2GY       0.050700
     52 H19         -9.2550    41.9550    25.5550 hc         1 2GY       0.046950
     53 H20         -7.8760    40.8640    25.4900 hc         1 2GY       0.046950
     54 H21         -7.1420    43.1880    25.0130 hc         1 2GY       0.049200
     55 H22         -7.8560    43.7600    26.5210 hc         1 2GY       0.049200
     56 H23        -11.1310    41.0830    28.6390 ha         1 2GY       0.135000
     57 H24         -8.2790    38.6710    26.4660 h4         1 2GY       0.017100
     58 H26        -16.4270    39.4450    30.5890 ha         1 2GY       0.136000
     59 H27        -15.2920    37.1900    30.3150 h4         1 2GY       0.024100
     60 H28        -11.2730    35.9450    27.1590 hn         1 2GY       0.510000
     61 H29        -12.5920    36.5170    28.1010 hn         1 2GY       0.510000
     62 H25        -15.2220    41.4770    29.6580 h4         1 2GY       0.024100
@<TRIPOS>BOND
     1     1     2 ar  
     2     1     6 ar  
     3     1    34 1   
     4     2     3 ar  
     5     2    35 1   
     6     3     4 ar  
     7     3    36 1   
     8     4     5 ar  
     9     4    37 1   
    10     5     6 ar  
    11     5    38 1   
    12     6     7 1   
    13     7     8 1   
    14     7    14 1   
    15     7    39 1   
    16     8     9 1   
    17     8    10 1   
    18     8    11 1   
    19     9    40 1   
    20     9    41 1   
    21     9    42 1   
    22    10    43 1   
    23    10    44 1   
    24    10    45 1   
    25    11    12 1   
    26    12    13 2   
    27    12    14 1   
    28    14    15 1   
    29    15    16 1   
    30    15    20 1   
    31    15    46 1   
    32    16    17 1   
    33    16    47 1   
    34    16    48 1   
    35    17    18 1   
    36    17    49 1   
    37    17    50 1   
    38    18    19 1   
    39    18    21 1   
    40    18    51 1   
    41    19    20 1   
    42    19    52 1   
    43    19    53 1   
    44    20    54 1   
    45    20    55 1   
    46    21    22 ar  
    47    21    26 ar  
    48    22    23 ar  
    49    22    56 1   
    50    23    24 ar  
    51    23    32 1   
    52    24    25 ar  
    53    24    33 1   
    54    25    26 ar  
    55    26    57 1   
    56    27    28 ar  
    57    27    32 ar  
    58    28    29 ar  
    59    28    62 1   
    60    29    30 ar  
    61    29    58 1   
    62    30    31 ar  
    63    30    59 1   
    64    31    32 ar  
    65    33    60 1   
    66    33    61 1   
@<TRIPOS>SUBSTRUCTURE
     1 2GY         1 TEMP              0 ****  ****    0 ROOT
