@<TRIPOS>MOLECULE
2GY
   62    66     1     0     0
SMALL
abcg2


@<TRIPOS>ATOM
      1 C5          -6.9770    46.3770    28.4040 ca         1 2GY      -0.094500
      2 C7          -7.3580    46.8310    29.6640 ca         1 2GY      -0.112000
      3 C8          -6.6220    46.4660    30.7850 ca         1 2GY      -0.102000
      4 C9          -5.5050    45.6460    30.6400 ca         1 2GY      -0.112000
      5 C10         -5.1300    45.1940    29.3810 ca         1 2GY      -0.094500
      6 C12         -5.8620    45.5570    28.2510 ca         1 2GY      -0.105300
      7 C13         -5.4670    45.0980    26.8660 c5         1 2GY       0.139000
      8 C14         -4.1740    45.7390    26.2680 c5         1 2GY       0.172000
      9 C15         -3.6940    47.0060    26.9410 c3         1 2GY      -0.095600
     10 C16         -4.3270    45.9200    24.7640 c3         1 2GY      -0.095600
     11 O1          -3.1630    44.6970    26.4890 os         1 2GY      -0.426100
     12 C11         -3.7810    43.5000    26.6520 c          1 2GY       0.691100
     13 O2          -3.1640    42.4490    26.6590 o          1 2GY      -0.545000
     14 N2          -5.1110    43.6860    26.7970 n          1 2GY      -0.445800
     15 C17         -6.0470    42.5670    26.9030 c6         1 2GY       0.136700
     16 C18         -6.4160    42.2180    28.3480 c6         1 2GY      -0.089400
     17 C19         -7.3180    40.9860    28.3860 c6         1 2GY      -0.068400
     18 C20         -8.5900    41.1910    27.5470 c6         1 2GY      -0.000400
     19 C21         -8.2160    41.5820    26.1070 c6         1 2GY      -0.068400
     20 C22         -7.3030    42.8060    26.0670 c6         1 2GY      -0.089400
     21 C1          -9.5090    39.9960    27.5900 ca         1 2GY      -0.217300
     22 C23        -10.7880    40.0710    28.1180 ca         1 2GY       0.019000
     23 C24        -11.6450    38.9680    28.1590 cp         1 2GY      -0.297500
     24 C25        -11.1440    37.7460    27.6200 ca         1 2GY       0.655900
     25 N3          -9.8970    37.6650    27.1150 nb         1 2GY      -0.772000
     26 C26         -9.1240    38.7450    27.1050 ca         1 2GY       0.422900
     27 N1         -13.3370    40.3450    29.1830 nb         1 2GY      -0.209000
     28 C2         -14.5430    40.4910    29.7180 ca         1 2GY       0.126900
     29 C3         -15.4380    39.4350    29.8420 ca         1 2GY      -0.236000
     30 C4         -15.0000    38.2100    29.3730 ca         1 2GY       0.126900
     31 N5         -13.7920    38.0460    28.8320 nb         1 2GY      -0.209000
     32 C6         -12.9870    39.1200    28.7490 cp         1 2GY       0.231500
     33 N4         -11.8760    36.6080    27.5520 nv         1 2GY      -1.072900
     34 H1          -7.5550    46.6560    27.5310 ha         1 2GY       0.117500
     35 H2          -8.2310    47.4640    29.7680 ha         1 2GY       0.116000
     36 H3          -6.9160    46.8130    31.7670 ha         1 2GY       0.115000
     37 H4          -4.9290    45.3550    31.5090 ha         1 2GY       0.116000
     38 H5          -4.2690    44.5460    29.2810 ha         1 2GY       0.117500
     39 H6          -6.2950    45.3100    26.1910 h1         1 2GY       0.069700
     40 H7          -3.4790    46.8400    27.9940 hc         1 2GY       0.053033
     41 H8          -2.7910    47.3640    26.4450 hc         1 2GY       0.053033
     42 H9          -4.4600    47.7780    26.8620 hc         1 2GY       0.053033
     43 H10         -5.0530    46.7080    24.5600 hc         1 2GY       0.053033
     44 H11         -3.3700    46.2010    24.3220 hc         1 2GY       0.053033
     45 H12         -4.6750    44.9970    24.2970 hc         1 2GY       0.053033
     46 H13         -5.5110    41.7150    26.4790 h1         1 2GY       0.078700
     47 H14         -5.5060    42.0470    28.9270 hc         1 2GY       0.049200
     48 H15         -6.9350    43.0640    28.8040 hc         1 2GY       0.049200
     49 H16         -7.5930    40.7550    29.4180 hc         1 2GY       0.046950
     50 H17         -6.7690    40.1190    28.0020 hc         1 2GY       0.046950
     51 H18         -9.1360    42.0350    27.9830 hc         1 2GY       0.050700
     52 H19         -9.1260    41.7780    25.5340 hc         1 2GY       0.046950
     53 H20         -7.7130    40.7380    25.6250 hc         1 2GY       0.046950
     54 H21         -7.0230    43.0390    25.0370 hc         1 2GY       0.049200
     55 H22         -7.8450    43.6720    26.4610 hc         1 2GY       0.049200
     56 H23        -11.1470    41.0090    28.5190 ha         1 2GY       0.135000
     57 H24         -8.1330    38.6050    26.6840 h4         1 2GY       0.017100
     58 H26        -16.4180    39.5640    30.2790 ha         1 2GY       0.136000
     59 H27        -15.6270    37.3270    29.4300 h4         1 2GY       0.024100
     60 H28        -11.3970    35.7610    27.2940 hn         1 2GY       0.510000
     61 H29        -12.7610    36.5840    28.0390 hn         1 2GY       0.510000
     62 H25        -14.8060    41.4870    30.0600 h4         1 2GY       0.024100
@<TRIPOS>BOND
     1     1     2 ar  
     2     1     6 ar  
     3     1    34 1   
     4     2     3 ar  
     5     2    35 1   
     6     3     4 ar  
     7     3    36 1   
     8     4     5 ar  
     9     4    37 1   
    10     5     6 ar  
    11     5    38 1   
    12     6     7 1   
    13     7     8 1   
    14     7    14 1   
    15     7    39 1   
    16     8     9 1   
    17     8    10 1   
    18     8    11 1   
    19     9    40 1   
    20     9    41 1   
    21     9    42 1   
    22    10    43 1   
    23    10    44 1   
    24    10    45 1   
    25    11    12 1   
    26    12    13 2   
    27    12    14 1   
    28    14    15 1   
    29    15    16 1   
    30    15    20 1   
    31    15    46 1   
    32    16    17 1   
    33    16    47 1   
    34    16    48 1   
    35    17    18 1   
    36    17    49 1   
    37    17    50 1   
    38    18    19 1   
    39    18    21 1   
    40    18    51 1   
    41    19    20 1   
    42    19    52 1   
    43    19    53 1   
    44    20    54 1   
    45    20    55 1   
    46    21    22 ar  
    47    21    26 ar  
    48    22    23 ar  
    49    22    56 1   
    50    23    24 ar  
    51    23    32 1   
    52    24    25 ar  
    53    24    33 1   
    54    25    26 ar  
    55    26    57 1   
    56    27    28 ar  
    57    27    32 ar  
    58    28    29 ar  
    59    28    62 1   
    60    29    30 ar  
    61    29    58 1   
    62    30    31 ar  
    63    30    59 1   
    64    31    32 ar  
    65    33    60 1   
    66    33    61 1   
@<TRIPOS>SUBSTRUCTURE
     1 2GY         1 TEMP              0 ****  ****    0 ROOT
