@<TRIPOS>MOLECULE
2GZ
   62    62     1     0     0
SMALL
No Charge or Current Charge


@<TRIPOS>ATOM
      1 C7          -5.1660     0.2020     0.5190 c3         1 2GZ       0.230900
      2 C6          -6.1720    -0.6150    -0.2810 ca         1 2GZ      -0.083300
      3 C1          -6.5000    -1.9270     0.1160 ca         1 2GZ      -0.086500
      4 C2          -7.4310    -2.6790    -0.6220 ca         1 2GZ      -0.121500
      5 C3          -8.0380    -2.1260    -1.7620 ca         1 2GZ      -0.113000
      6 C4          -7.7130    -0.8200    -2.1650 ca         1 2GZ      -0.121500
      7 C5          -6.7830    -0.0660    -1.4270 ca         1 2GZ      -0.086500
      8 C9          -2.8090     0.6060     0.5690 c          1 2GZ       0.633100
      9 O10         -2.8840     1.3840     1.5070 o          1 2GZ      -0.551000
     10 O8          -3.8540    -0.0390    -0.0170 os         1 2GZ      -0.469100
     11 N11         -1.6540     0.2600    -0.0860 ns         1 2GZ      -0.448900
     12 C12         -0.2850     0.7200     0.2830 c3         1 2GZ      -0.261000
     13 P13          0.6150    -0.2740     1.5710 p5         1 2GZ       1.384300
     14 O15          1.2010    -1.5140     0.9970 o          1 2GZ      -0.821500
     15 O14         -0.1210    -0.4680     2.8480 o          1 2GZ      -0.821500
     16 N16          1.8680     0.7260     1.8860 n7         1 2GZ      -1.014500
     17 C17          2.9260     1.0550     0.8820 c3         1 2GZ       0.187500
     18 C22          4.1670     0.0740     0.9060 c          1 2GZ       0.581100
     19 O23          5.2970     0.4020     1.2540 o          1 2GZ      -0.666100
     20 C18          3.3090     2.5550     1.0380 c3         1 2GZ      -0.071400
     21 C19          4.1900     3.1620    -0.0950 c3         1 2GZ      -0.062700
     22 C20          3.5280     3.0740    -1.4910 c3         1 2GZ      -0.085100
     23 C21          4.5730     4.6230     0.2350 c3         1 2GZ      -0.085100
     24 N24          3.8910    -1.2110     0.5000 ns         1 2GZ      -0.508900
     25 C25          4.8760    -2.2770     0.2990 c3         1 2GZ       0.114000
     26 C26          5.2970    -2.4670    -1.1900 c3         1 2GZ      -0.067000
     27 C27          6.3150    -3.6340    -1.2690 c3         1 2GZ      -0.079100
     28 C28          4.0590    -2.8180    -2.0590 c3         1 2GZ      -0.079100
     29 C29          5.9650    -1.1790    -1.7450 c3         1 2GZ      -0.079100
     30 H27         -5.4240     1.2670     0.4530 h1         1 2GZ       0.051700
     31 H28         -5.2140    -0.0920     1.5760 h1         1 2GZ       0.051700
     32 H29         -6.0330    -2.3630     0.9960 ha         1 2GZ       0.120000
     33 H30         -7.6800    -3.6910    -0.3110 ha         1 2GZ       0.106000
     34 H31         -8.7570    -2.7090    -2.3330 ha         1 2GZ       0.102000
     35 H32         -8.1810    -0.3910    -3.0480 ha         1 2GZ       0.106000
     36 H33         -6.5350     0.9440    -1.7470 ha         1 2GZ       0.120000
     37 H34         -1.7700    -0.4030    -0.8450 hn         1 2GZ       0.322500
     38 H25          0.3390     0.7140    -0.6170 h1         1 2GZ       0.055700
     39 H26         -0.3370     1.7490     0.6600 h1         1 2GZ       0.055700
     40 H1           2.2740     0.2780     2.7030 hn         1 2GZ       0.463000
     41 H2           2.4930     0.9480    -0.1200 h1         1 2GZ       0.057700
     42 H3           2.3850     3.1440     1.1020 hc         1 2GZ       0.041700
     43 H4           3.8200     2.6860     2.0000 hc         1 2GZ       0.041700
     44 H5           5.1290     2.5980    -0.1450 hc         1 2GZ       0.066700
     45 H6           4.1440     3.5800    -2.2430 hc         1 2GZ       0.025533
     46 H7           3.4130     2.0320    -1.8120 hc         1 2GZ       0.025533
     47 H8           2.5380     3.5470    -1.4850 hc         1 2GZ       0.025533
     48 H9           3.6800     5.2590     0.2880 hc         1 2GZ       0.025533
     49 H10          5.0930     4.6800     1.1990 hc         1 2GZ       0.025533
     50 H11          5.2400     5.0330    -0.5320 hc         1 2GZ       0.025533
     51 H12          2.8990    -1.4390     0.4000 hn         1 2GZ       0.383500
     52 H13          5.7660    -2.0710     0.9090 h1         1 2GZ       0.045200
     53 H14          4.4380    -3.2130     0.6720 h1         1 2GZ       0.045200
     54 H15          7.2080    -3.4170    -0.6700 hc         1 2GZ       0.029367
     55 H16          5.8740    -4.5660    -0.8920 hc         1 2GZ       0.029367
     56 H17          6.6370    -3.8080    -2.3030 hc         1 2GZ       0.029367
     57 H18          4.3530    -3.0120    -3.0980 hc         1 2GZ       0.029367
     58 H19          3.5550    -3.7150    -1.6780 hc         1 2GZ       0.029367
     59 H20          3.3310    -1.9980    -2.0670 hc         1 2GZ       0.029367
     60 H21          6.8230    -0.8870    -1.1280 hc         1 2GZ       0.029367
     61 H22          6.3230    -1.3360    -2.7700 hc         1 2GZ       0.029367
     62 H23          5.2590    -0.3400    -1.7660 hc         1 2GZ       0.029367
@<TRIPOS>BOND
     1     1     2 1   
     2     1    10 1   
     3     1    30 1   
     4     1    31 1   
     5     2     3 ar  
     6     2     7 ar  
     7     3     4 ar  
     8     3    32 1   
     9     4     5 ar  
    10     4    33 1   
    11     5     6 ar  
    12     5    34 1   
    13     6     7 ar  
    14     6    35 1   
    15     7    36 1   
    16     8     9 2   
    17     8    10 1   
    18     8    11 1   
    19    11    12 1   
    20    11    37 1   
    21    12    13 1   
    22    12    38 1   
    23    12    39 1   
    24    13    14 1   
    25    13    15 1   
    26    13    16 1   
    27    16    17 1   
    28    16    40 1   
    29    17    18 1   
    30    17    20 1   
    31    17    41 1   
    32    18    19 2   
    33    18    24 1   
    34    20    21 1   
    35    20    42 1   
    36    20    43 1   
    37    21    22 1   
    38    21    23 1   
    39    21    44 1   
    40    22    45 1   
    41    22    46 1   
    42    22    47 1   
    43    23    48 1   
    44    23    49 1   
    45    23    50 1   
    46    24    25 1   
    47    24    51 1   
    48    25    26 1   
    49    25    52 1   
    50    25    53 1   
    51    26    27 1   
    52    26    28 1   
    53    26    29 1   
    54    27    54 1   
    55    27    55 1   
    56    27    56 1   
    57    28    57 1   
    58    28    58 1   
    59    28    59 1   
    60    29    60 1   
    61    29    61 1   
    62    29    62 1   
@<TRIPOS>SUBSTRUCTURE
     1 2GZ         1 TEMP              0 ****  ****    0 ROOT
