@<TRIPOS>MOLECULE
2GZ
   62    62     1     0     0
SMALL
bcc


@<TRIPOS>ATOM
      1 C7          -5.1800     0.0260     0.6710 c3         1 2GZ       0.207700
      2 C6          -5.9930    -0.9250    -0.1540 ca         1 2GZ      -0.083300
      3 C1          -5.6490    -2.2750    -0.2100 ca         1 2GZ      -0.104500
      4 C2          -6.3910    -3.1600    -0.9770 ca         1 2GZ      -0.139500
      5 C3          -7.4910    -2.7060    -1.6960 ca         1 2GZ      -0.131000
      6 C4          -7.8420    -1.3650    -1.6440 ca         1 2GZ      -0.139500
      7 C5          -7.0920    -0.4790    -0.8790 ca         1 2GZ      -0.104500
      8 C9          -3.0120     0.9620     0.6210 c          1 2GZ       0.749100
      9 O10         -3.1960     1.4910     1.6990 o          1 2GZ      -0.600000
     10 O8          -3.9340     0.2140    -0.0050 os         1 2GZ      -0.445900
     11 N11         -1.9010     1.0700    -0.1280 ns         1 2GZ      -0.515900
     12 C12         -0.6540     1.5720     0.4110 c3         1 2GZ      -0.103200
     13 P13          0.3870     0.1910     1.0540 p5         1 2GZ       1.226500
     14 O15          0.7270    -0.6750    -0.1490 o          1 2GZ      -0.821500
     15 O14         -0.3020    -0.4070     2.2510 o          1 2GZ      -0.821500
     16 N16          1.8150     0.9430     1.5520 n7         1 2GZ      -0.959300
     17 C17          2.9240     1.2350     0.6660 c3         1 2GZ       0.187500
     18 C22          3.9530     0.0970     0.7680 c          1 2GZ       0.648100
     19 O23          5.0200     0.2220     1.3610 o          1 2GZ      -0.666100
     20 C18          3.5260     2.6030     0.9530 c3         1 2GZ      -0.071400
     21 C19          4.6090     3.0760    -0.0200 c3         1 2GZ      -0.062700
     22 C20          4.1140     3.1400    -1.4630 c3         1 2GZ      -0.085100
     23 C21          5.1250     4.4430     0.4200 c3         1 2GZ      -0.085100
     24 N24          3.5460    -1.0360     0.1800 ns         1 2GZ      -0.575900
     25 C25          4.2910    -2.2700     0.1750 c3         1 2GZ       0.114000
     26 C26          4.9470    -2.5930    -1.1780 c3         1 2GZ      -0.067000
     27 C27          5.6560    -3.9400    -1.0380 c3         1 2GZ      -0.079100
     28 C28          3.8790    -2.6850    -2.2670 c3         1 2GZ      -0.079100
     29 C29          5.9600    -1.5110    -1.5480 c3         1 2GZ      -0.079100
     30 H27         -5.7010     0.9800     0.7850 h1         1 2GZ       0.051700
     31 H28         -5.0070    -0.3840     1.6690 h1         1 2GZ       0.051700
     32 H29         -4.7960    -2.6370     0.3520 ha         1 2GZ       0.138000
     33 H30         -6.1140    -4.2060    -1.0120 ha         1 2GZ       0.124000
     34 H31         -8.0710    -3.3970    -2.2940 ha         1 2GZ       0.120000
     35 H32         -8.6980    -1.0050    -2.1990 ha         1 2GZ       0.124000
     36 H33         -7.3690     0.5680    -0.8450 ha         1 2GZ       0.138000
     37 H34         -1.8330     0.4840    -0.9460 hn         1 2GZ       0.322500
     38 H25         -0.1230     2.1110    -0.3770 h1         1 2GZ       0.055700
     39 H26         -0.8660     2.2930     1.1980 h1         1 2GZ       0.055700
     40 H1           1.8910     1.2970     2.4930 hn         1 2GZ       0.407800
     41 H2           2.5340     1.2350    -0.3560 h1         1 2GZ       0.057700
     42 H3           2.7050     3.3280     0.9420 hc         1 2GZ       0.041700
     43 H4           3.9300     2.6090     1.9710 hc         1 2GZ       0.041700
     44 H5           5.4460     2.3730     0.0230 hc         1 2GZ       0.066700
     45 H6           4.8880     3.5460    -2.1170 hc         1 2GZ       0.025533
     46 H7           3.8430     2.1600    -1.8600 hc         1 2GZ       0.025533
     47 H8           3.2380     3.7880    -1.5480 hc         1 2GZ       0.025533
     48 H9           4.3300     5.1920     0.3760 hc         1 2GZ       0.025533
     49 H10          5.5000     4.4170     1.4450 hc         1 2GZ       0.025533
     50 H11          5.9380     4.7860    -0.2220 hc         1 2GZ       0.025533
     51 H12          2.5730    -1.0550    -0.1350 hn         1 2GZ       0.383500
     52 H13          5.0580    -2.2260     0.9500 h1         1 2GZ       0.045200
     53 H14          3.6110    -3.0840     0.4420 h1         1 2GZ       0.045200
     54 H15          6.4350    -3.9030    -0.2730 hc         1 2GZ       0.029367
     55 H16          4.9540    -4.7310    -0.7620 hc         1 2GZ       0.029367
     56 H17          6.1300    -4.2330    -1.9770 hc         1 2GZ       0.029367
     57 H18          4.3280    -2.9200    -3.2340 hc         1 2GZ       0.029367
     58 H19          3.1470    -3.4670    -2.0460 hc         1 2GZ       0.029367
     59 H20          3.3400    -1.7420    -2.3770 hc         1 2GZ       0.029367
     60 H21          6.7290    -1.4030    -0.7800 hc         1 2GZ       0.029367
     61 H22          6.4580    -1.7550    -2.4890 hc         1 2GZ       0.029367
     62 H23          5.4790    -0.5400    -1.6760 hc         1 2GZ       0.029367
@<TRIPOS>BOND
     1     1     2 1   
     2     1    10 1   
     3     1    30 1   
     4     1    31 1   
     5     2     3 ar  
     6     2     7 ar  
     7     3     4 ar  
     8     3    32 1   
     9     4     5 ar  
    10     4    33 1   
    11     5     6 ar  
    12     5    34 1   
    13     6     7 ar  
    14     6    35 1   
    15     7    36 1   
    16     8     9 2   
    17     8    10 1   
    18     8    11 1   
    19    11    12 1   
    20    11    37 1   
    21    12    13 1   
    22    12    38 1   
    23    12    39 1   
    24    13    14 1   
    25    13    15 1   
    26    13    16 1   
    27    16    17 1   
    28    16    40 1   
    29    17    18 1   
    30    17    20 1   
    31    17    41 1   
    32    18    19 2   
    33    18    24 1   
    34    20    21 1   
    35    20    42 1   
    36    20    43 1   
    37    21    22 1   
    38    21    23 1   
    39    21    44 1   
    40    22    45 1   
    41    22    46 1   
    42    22    47 1   
    43    23    48 1   
    44    23    49 1   
    45    23    50 1   
    46    24    25 1   
    47    24    51 1   
    48    25    26 1   
    49    25    52 1   
    50    25    53 1   
    51    26    27 1   
    52    26    28 1   
    53    26    29 1   
    54    27    54 1   
    55    27    55 1   
    56    27    56 1   
    57    28    57 1   
    58    28    58 1   
    59    28    59 1   
    60    29    60 1   
    61    29    61 1   
    62    29    62 1   
@<TRIPOS>SUBSTRUCTURE
     1 2GZ         1 TEMP              0 ****  ****    0 ROOT
