@<TRIPOS>MOLECULE
2H0
   62    62     1     0     0
SMALL
abcg2


@<TRIPOS>ATOM
      1 C4          -4.9230    -2.2760     0.3060 c3         1 2H0       0.231900
      2 C5          -5.9710    -1.3050    -0.1640 ca         1 2H0      -0.104300
      3 C6          -6.8810    -0.7610     0.7340 ca         1 2H0      -0.084500
      4 C7          -7.8770     0.1030     0.2960 ca         1 2H0      -0.121000
      5 C8          -7.9610     0.4450    -1.0460 ca         1 2H0      -0.114000
      6 C9          -7.0490    -0.0880    -1.9490 ca         1 2H0      -0.121000
      7 C10         -6.0630    -0.9610    -1.5110 ca         1 2H0      -0.084500
      8 C3          -3.0280    -0.8760     0.3450 c          1 2H0       0.631100
      9 O21         -3.4870    -0.2460     1.2750 o          1 2H0      -0.542000
     10 O4          -3.6260    -1.9590    -0.1840 os         1 2H0      -0.467100
     11 N2          -1.8940    -0.5960    -0.3160 ns         1 2H0      -0.450900
     12 C22         -0.9220     0.3630     0.1660 c3         1 2H0      -0.260000
     13 P            0.4180    -0.4650     1.1290 p5         1 2H0       1.377300
     14 O2           1.0640    -1.4650     0.1840 o          1 2H0      -0.819500
     15 O3          -0.1410    -0.9140     2.4520 o          1 2H0      -0.819500
     16 N            1.5500     0.7610     1.4010 n7         1 2H0      -1.005500
     17 C2           2.4710     1.2230     0.3790 c3         1 2H0       0.180500
     18 C21          3.8500     0.5930     0.6290 c          1 2H0       0.588100
     19 O1           4.8270     1.2470     0.9780 o          1 2H0      -0.668100
     20 C23          2.5060     2.7440     0.3070 c3         1 2H0      -0.073400
     21 C24          3.2770     3.3530    -0.8670 c3         1 2H0      -0.061700
     22 C25          2.7670     2.8590    -2.2180 c3         1 2H0      -0.085600
     23 C26          3.1940     4.8750    -0.7980 c3         1 2H0      -0.085600
     24 C31          7.3980    -3.3960    -1.8070 c3         1 2H0      -0.085100
     25 C29          6.8880    -2.9200    -0.4500 c3         1 2H0      -0.059700
     26 C30          8.0180    -2.2660     0.3430 c3         1 2H0      -0.085100
     27 C28          5.6970    -1.9780    -0.6340 c3         1 2H0      -0.095400
     28 C27          5.0230    -1.5670     0.6710 c3         1 2H0       0.110000
     29 N21          3.8640    -0.7350     0.4530 ns         1 2H0      -0.507900
     30 H16         -4.9250    -2.3460     1.3960 h1         1 2H0       0.059200
     31 H17         -5.1270    -3.2720    -0.0880 h1         1 2H0       0.059200
     32 H18         -6.8130    -1.0140     1.7850 ha         1 2H0       0.118000
     33 H19         -8.5810     0.5180     1.0060 ha         1 2H0       0.103500
     34 H20         -8.7330     1.1210    -1.3890 ha         1 2H0       0.101000
     35 H21         -7.1080     0.1730    -2.9980 ha         1 2H0       0.103500
     36 H22         -5.3620    -1.3750    -2.2270 ha         1 2H0       0.118000
     37 H23         -1.5710    -1.2590    -1.0020 hn         1 2H0       0.322500
     38 H14         -0.4990     0.8910    -0.6930 h1         1 2H0       0.054200
     39 H15         -1.4280     1.1090     0.7780 h1         1 2H0       0.054200
     40 H1           1.4410     1.3680     2.1990 hn         1 2H0       0.459000
     41 H2           2.1160     0.8410    -0.5840 h1         1 2H0       0.056700
     42 H3           1.4650     3.0810     0.2510 hc         1 2H0       0.041200
     43 H4           2.9080     3.1410     1.2450 hc         1 2H0       0.041200
     44 H5           4.3290     3.0710    -0.7740 hc         1 2H0       0.066700
     45 H6           3.2770     3.3730    -3.0350 hc         1 2H0       0.025700
     46 H7           2.9310     1.7900    -2.3640 hc         1 2H0       0.025700
     47 H8           1.6960     3.0490    -2.3280 hc         1 2H0       0.025700
     48 H9           2.1630     5.2170    -0.9190 hc         1 2H0       0.025700
     49 H10          3.5570     5.2520     0.1600 hc         1 2H0       0.025700
     50 H11          3.7900     5.3390    -1.5850 hc         1 2H0       0.025700
     51 H32          7.7740    -2.5580    -2.3980 hc         1 2H0       0.027367
     52 H33          8.2140    -4.1120    -1.6940 hc         1 2H0       0.027367
     53 H34          6.6070    -3.8790    -2.3830 hc         1 2H0       0.027367
     54 H28          6.5430    -3.7990     0.1080 hc         1 2H0       0.041700
     55 H29          8.3520    -1.3500    -0.1510 hc         1 2H0       0.027367
     56 H30          7.7170    -2.0050     1.3570 hc         1 2H0       0.027367
     57 H31          8.8790    -2.9330     0.4210 hc         1 2H0       0.027367
     58 H26          6.0250    -1.0790    -1.1680 hc         1 2H0       0.044700
     59 H27          4.9540    -2.4650    -1.2740 hc         1 2H0       0.044700
     60 H24          4.7100    -2.4590     1.2200 h1         1 2H0       0.044200
     61 H25          5.7200    -1.0280     1.3110 h1         1 2H0       0.044200
     62 H12          2.9690    -1.1820     0.2470 hn         1 2H0       0.382500
@<TRIPOS>BOND
     1     1     2 1   
     2     1    10 1   
     3     1    30 1   
     4     1    31 1   
     5     2     3 ar  
     6     2     7 ar  
     7     3     4 ar  
     8     3    32 1   
     9     4     5 ar  
    10     4    33 1   
    11     5     6 ar  
    12     5    34 1   
    13     6     7 ar  
    14     6    35 1   
    15     7    36 1   
    16     8     9 2   
    17     8    10 1   
    18     8    11 1   
    19    11    12 1   
    20    11    37 1   
    21    12    13 1   
    22    12    38 1   
    23    12    39 1   
    24    13    14 1   
    25    13    15 1   
    26    13    16 1   
    27    16    17 1   
    28    16    40 1   
    29    17    18 1   
    30    17    20 1   
    31    17    41 1   
    32    18    19 2   
    33    18    29 1   
    34    20    21 1   
    35    20    42 1   
    36    20    43 1   
    37    21    22 1   
    38    21    23 1   
    39    21    44 1   
    40    22    45 1   
    41    22    46 1   
    42    22    47 1   
    43    23    48 1   
    44    23    49 1   
    45    23    50 1   
    46    24    25 1   
    47    24    51 1   
    48    24    52 1   
    49    24    53 1   
    50    25    26 1   
    51    25    27 1   
    52    25    54 1   
    53    26    55 1   
    54    26    56 1   
    55    26    57 1   
    56    27    28 1   
    57    27    58 1   
    58    27    59 1   
    59    28    29 1   
    60    28    60 1   
    61    28    61 1   
    62    29    62 1   
@<TRIPOS>SUBSTRUCTURE
     1 2H0         1 TEMP              0 ****  ****    0 ROOT
