@<TRIPOS>MOLECULE
2H0
   62    62     1     0     0
SMALL
No Charge or Current Charge


@<TRIPOS>ATOM
      1 C4          -5.2540    -2.0710     0.6370 c3         1 2H0       0.231900
      2 C5          -6.0570    -1.0200    -0.1280 ca         1 2H0      -0.104300
      3 C6          -6.6260     0.0790     0.5480 ca         1 2H0      -0.084500
      4 C7          -7.3680     1.0400    -0.1610 ca         1 2H0      -0.121000
      5 C8          -7.5470     0.9090    -1.5480 ca         1 2H0      -0.114000
      6 C9          -6.9830    -0.1840    -2.2270 ca         1 2H0      -0.121000
      7 C10         -6.2410    -1.1450    -1.5190 ca         1 2H0      -0.084500
      8 C3          -3.0810    -1.0380     0.5420 c          1 2H0       0.631100
      9 O21         -3.3720    -0.1310     1.3060 o          1 2H0      -0.542000
     10 O4          -3.8910    -2.0700     0.1710 os         1 2H0      -0.467100
     11 N2          -1.8600    -1.2020    -0.0650 ns         1 2H0      -0.450900
     12 C22         -0.6740    -0.3240     0.1400 c3         1 2H0      -0.260000
     13 P            0.4450    -0.7430     1.5650 p5         1 2H0       1.377300
     14 O2           1.3520    -1.8740     1.2360 o          1 2H0      -0.819500
     15 O3          -0.2270    -0.8530     2.8870 o          1 2H0      -0.819500
     16 N            1.3760     0.6010     1.6070 n7         1 2H0      -1.005500
     17 C2           2.3100     1.0060     0.5120 c3         1 2H0       0.180500
     18 C21          3.7780     0.4300     0.6650 c          1 2H0       0.588100
     19 O1           4.7780     1.1240     0.8180 o          1 2H0      -0.668100
     20 C23          2.2560     2.5570     0.3810 c3         1 2H0      -0.073400
     21 C24          2.8970     3.1640    -0.9030 c3         1 2H0      -0.061700
     22 C25          2.2230     2.6700    -2.2060 c3         1 2H0      -0.085600
     23 C26          2.8870     4.7090    -0.8390 c3         1 2H0      -0.085600
     24 C31          7.7040    -2.7100    -2.1180 c3         1 2H0      -0.085100
     25 C29          7.1180    -2.6280    -0.6900 c3         1 2H0      -0.059700
     26 C30          8.2000    -2.1840     0.3230 c3         1 2H0      -0.085100
     27 C28          5.8570    -1.7230    -0.6580 c3         1 2H0      -0.095400
     28 C27          5.1110    -1.7140     0.6950 c3         1 2H0       0.110000
     29 N21          3.8690    -0.9430     0.6310 ns         1 2H0      -0.507900
     30 H16         -5.3030    -1.8860     1.7190 h1         1 2H0       0.059200
     31 H17         -5.7090    -3.0530     0.4550 h1         1 2H0       0.059200
     32 H18         -6.4910     0.1900     1.6220 ha         1 2H0       0.118000
     33 H19         -7.8040     1.8860     0.3660 ha         1 2H0       0.103500
     34 H20         -8.1210     1.6530    -2.0960 ha         1 2H0       0.101000
     35 H21         -7.1210    -0.2860    -3.3010 ha         1 2H0       0.103500
     36 H22         -5.8060    -1.9890    -2.0520 ha         1 2H0       0.118000
     37 H23         -1.7780    -2.0230    -0.6550 hn         1 2H0       0.322500
     38 H14         -0.0580    -0.3540    -0.7660 h1         1 2H0       0.054200
     39 H15         -1.0080     0.7090     0.2950 h1         1 2H0       0.054200
     40 H1           1.8740     0.4820     2.4850 hn         1 2H0       0.459000
     41 H2           1.9330     0.5950    -0.4320 h1         1 2H0       0.056700
     42 H3           1.2060     2.8720     0.4150 hc         1 2H0       0.041200
     43 H4           2.7340     2.9970     1.2650 hc         1 2H0       0.041200
     44 H5           3.9490     2.8600    -0.9460 hc         1 2H0       0.066700
     45 H6           2.6530     3.1760    -3.0790 hc         1 2H0       0.025700
     46 H7           2.3710     1.5930    -2.3480 hc         1 2H0       0.025700
     47 H8           1.1450     2.8730    -2.1910 hc         1 2H0       0.025700
     48 H9           1.8600     5.0930    -0.8080 hc         1 2H0       0.025700
     49 H10          3.4140     5.0640     0.0540 hc         1 2H0       0.025700
     50 H11          3.3860     5.1380    -1.7170 hc         1 2H0       0.025700
     51 H32          8.0400    -1.7230    -2.4590 hc         1 2H0       0.027367
     52 H33          8.5610    -3.3930    -2.1470 hc         1 2H0       0.027367
     53 H34          6.9530    -3.0810    -2.8260 hc         1 2H0       0.027367
     54 H28          6.8050    -3.6440    -0.4130 hc         1 2H0       0.041700
     55 H29          8.5100    -1.1490     0.1340 hc         1 2H0       0.027367
     56 H30          7.8310    -2.2520     1.3530 hc         1 2H0       0.027367
     57 H31          9.0860    -2.8260     0.2480 hc         1 2H0       0.027367
     58 H26          6.1410    -0.6970    -0.9230 hc         1 2H0       0.044700
     59 H27          5.1580    -2.0650    -1.4320 hc         1 2H0       0.044700
     60 H24          4.8610    -2.7440     0.9810 h1         1 2H0       0.044200
     61 H25          5.7510    -1.2890     1.4790 h1         1 2H0       0.044200
     62 H12          2.9780    -1.4470     0.6500 hn         1 2H0       0.382500
@<TRIPOS>BOND
     1     1     2 1   
     2     1    10 1   
     3     1    30 1   
     4     1    31 1   
     5     2     3 ar  
     6     2     7 ar  
     7     3     4 ar  
     8     3    32 1   
     9     4     5 ar  
    10     4    33 1   
    11     5     6 ar  
    12     5    34 1   
    13     6     7 ar  
    14     6    35 1   
    15     7    36 1   
    16     8     9 2   
    17     8    10 1   
    18     8    11 1   
    19    11    12 1   
    20    11    37 1   
    21    12    13 1   
    22    12    38 1   
    23    12    39 1   
    24    13    14 1   
    25    13    15 1   
    26    13    16 1   
    27    16    17 1   
    28    16    40 1   
    29    17    18 1   
    30    17    20 1   
    31    17    41 1   
    32    18    19 2   
    33    18    29 1   
    34    20    21 1   
    35    20    42 1   
    36    20    43 1   
    37    21    22 1   
    38    21    23 1   
    39    21    44 1   
    40    22    45 1   
    41    22    46 1   
    42    22    47 1   
    43    23    48 1   
    44    23    49 1   
    45    23    50 1   
    46    24    25 1   
    47    24    51 1   
    48    24    52 1   
    49    24    53 1   
    50    25    26 1   
    51    25    27 1   
    52    25    54 1   
    53    26    55 1   
    54    26    56 1   
    55    26    57 1   
    56    27    28 1   
    57    27    58 1   
    58    27    59 1   
    59    28    29 1   
    60    28    60 1   
    61    28    61 1   
    62    29    62 1   
@<TRIPOS>SUBSTRUCTURE
     1 2H0         1 TEMP              0 ****  ****    0 ROOT
