@<TRIPOS>MOLECULE
2H1
   56    60     1     0     0
SMALL
bcc


@<TRIPOS>ATOM
      1 CAL         -6.1190    -2.9350    -0.8220 c3         1 2H1      -0.104100
      2 CAK         -6.1530    -1.9720     0.3560 c3         1 2H1       0.082000
      3 CAM         -5.9760    -2.6840     1.6890 c3         1 2H1      -0.104100
      4 NAG         -5.1470    -0.9320     0.1910 na         1 2H1       0.013200
      5 NAH         -3.8450    -1.2380     0.1690 nc         1 2H1      -0.518100
      6 C4          -5.3410     0.3890     0.0300 ca         1 2H1       0.484800
      7 N3          -6.5130     1.0320     0.0030 nb         1 2H1      -0.759000
      8 C2          -6.3670     2.3240    -0.1990 ca         1 2H1       0.721900
      9 N1          -5.2420     3.0080    -0.4030 nb         1 2H1      -0.839000
     10 C6          -4.0770     2.3560    -0.3940 ca         1 2H1       0.783200
     11 NAJ         -2.9710     3.0590    -0.6500 nv         1 2H1      -0.957500
     12 C5          -4.0770     0.9690    -0.1150 ca         1 2H1      -0.510500
     13 CAI         -3.1720    -0.1240    -0.0030 cd         1 2H1       0.431500
     14 CAN         -1.7070    -0.1490    -0.0420 ca         1 2H1      -0.101900
     15 CAS         -0.9590     0.8190     0.5860 ca         1 2H1      -0.102000
     16 CAO         -1.0440    -1.2110    -0.7000 ca         1 2H1      -0.091000
     17 CAP          0.3240    -1.3050    -0.7480 ca         1 2H1      -0.126600
     18 CAX          1.0080    -2.4340    -1.4540 c3         1 2H1      -0.035800
     19 CAQ          1.0970    -0.2990    -0.1120 ca         1 2H1       0.451600
     20 NAT          2.4480    -0.3930    -0.1630 nb         1 2H1      -0.771000
     21 CAR          0.4460     0.7620     0.5540 ca         1 2H1      -0.183300
     22 CAW          1.2650     1.7380     1.1800 ca         1 2H1      -0.060000
     23 CAV          2.6170     1.6310     1.1190 ca         1 2H1      -0.251300
     24 CAU          3.1630     0.5190     0.4190 ca         1 2H1       0.667600
     25 OAY          4.4930     0.4530     0.3850 os         1 2H1      -0.435100
     26 CAZ          5.0870    -0.6590    -0.2910 c3         1 2H1       0.193700
     27 CBA          6.5720    -0.4990    -0.1730 ca         1 2H1      -0.100300
     28 CBB          7.2890     0.1770    -1.1550 ca         1 2H1      -0.102500
     29 CBC          8.6620     0.3480    -1.0360 ca         1 2H1      -0.134000
     30 CBD          9.3300    -0.1540     0.0730 ca         1 2H1      -0.116000
     31 CBE          8.6220    -0.8300     1.0590 ca         1 2H1      -0.134000
     32 CBF          7.2500    -0.9990     0.9350 ca         1 2H1      -0.102500
     33 H1          -6.9320    -3.6550    -0.7300 hc         1 2H1       0.048367
     34 H2          -6.2390    -2.4080    -1.7680 hc         1 2H1       0.048367
     35 H3          -5.1800    -3.4870    -0.8510 hc         1 2H1       0.048367
     36 H4          -7.1060    -1.4420     0.3570 h1         1 2H1       0.083700
     37 H5          -5.0260    -3.2180     1.7260 hc         1 2H1       0.048367
     38 H6          -6.0130    -1.9830     2.5230 hc         1 2H1       0.048367
     39 H7          -6.7750    -3.4130     1.8250 hc         1 2H1       0.048367
     40 H8          -7.2770     2.9140    -0.2140 h5         1 2H1       0.046100
     41 H9          -3.0620     4.0210    -0.9330 hn         1 2H1       0.446300
     42 H10         -2.0910     2.6070    -0.8290 hn         1 2H1       0.446300
     43 H11         -1.4360     1.6200     1.1400 ha         1 2H1       0.141000
     44 H12         -1.6430    -1.9700    -1.1880 ha         1 2H1       0.146000
     45 H13          1.6900    -2.0650    -2.2220 hc         1 2H1       0.046367
     46 H14          1.6090    -3.0270    -0.7630 hc         1 2H1       0.046367
     47 H15          0.2850    -3.0940    -1.9290 hc         1 2H1       0.046367
     48 H16          0.8020     2.5670     1.7000 ha         1 2H1       0.140000
     49 H17          3.2690     2.3590     1.5820 ha         1 2H1       0.158000
     50 H18          4.7530    -1.5940     0.1660 h1         1 2H1       0.056200
     51 H19          4.7730    -0.6730    -1.3370 h1         1 2H1       0.056200
     52 H20          6.7720     0.5680    -2.0240 ha         1 2H1       0.132500
     53 H21          9.2090     0.8710    -1.8090 ha         1 2H1       0.132000
     54 H22         10.4000    -0.0240     0.1670 ha         1 2H1       0.131000
     55 H23          9.1380    -1.2280     1.9230 ha         1 2H1       0.132000
     56 H24          6.7020    -1.5300     1.7050 ha         1 2H1       0.132500
@<TRIPOS>BOND
     1     1     2 1   
     2     1    33 1   
     3     1    34 1   
     4     1    35 1   
     5     2     3 1   
     6     2     4 1   
     7     2    36 1   
     8     3    37 1   
     9     3    38 1   
    10     3    39 1   
    11     4     5 1   
    12     4     6 1   
    13     5    13 2   
    14     6     7 ar  
    15     6    12 ar  
    16     7     8 ar  
    17     8     9 ar  
    18     8    40 1   
    19     9    10 ar  
    20    10    11 1   
    21    10    12 ar  
    22    11    41 1   
    23    11    42 1   
    24    12    13 1   
    25    13    14 1   
    26    14    15 ar  
    27    14    16 ar  
    28    15    21 ar  
    29    15    43 1   
    30    16    17 ar  
    31    16    44 1   
    32    17    18 1   
    33    17    19 ar  
    34    18    45 1   
    35    18    46 1   
    36    18    47 1   
    37    19    20 ar  
    38    19    21 ar  
    39    20    24 ar  
    40    21    22 ar  
    41    22    23 ar  
    42    22    48 1   
    43    23    24 ar  
    44    23    49 1   
    45    24    25 1   
    46    25    26 1   
    47    26    27 1   
    48    26    50 1   
    49    26    51 1   
    50    27    28 ar  
    51    27    32 ar  
    52    28    29 ar  
    53    28    52 1   
    54    29    30 ar  
    55    29    53 1   
    56    30    31 ar  
    57    30    54 1   
    58    31    32 ar  
    59    31    55 1   
    60    32    56 1   
@<TRIPOS>SUBSTRUCTURE
     1 2H1         1 TEMP              0 ****  ****    0 ROOT
