@<TRIPOS>MOLECULE
2H1
   56    60     1     0     0
SMALL
No Charge or Current Charge


@<TRIPOS>ATOM
      1 CAL         -6.6080    -2.8410    -0.6720 c3         1 2H1      -0.104100
      2 CAK         -6.3860    -1.8810     0.5170 c3         1 2H1       0.111300
      3 CAM         -6.2590    -2.6420     1.8550 c3         1 2H1      -0.104100
      4 NAG         -5.2360    -0.9770     0.2830 na         1 2H1      -0.016100
      5 NAH         -3.9100    -1.4130     0.2030 nc         1 2H1      -0.518100
      6 C4          -5.3530     0.3890     0.0640 ca         1 2H1       0.156500
      7 N3          -6.4230     1.2060    -0.0080 nb         1 2H1      -0.233000
      8 C2          -6.1530     2.4960    -0.3180 ca         1 2H1       0.195900
      9 N1          -4.9340     3.0240    -0.5880 nb         1 2H1      -0.313000
     10 C6          -3.8950     2.1830    -0.5100 ca         1 2H1       0.454900
     11 NAJ         -2.7000     2.7070    -0.8510 nv         1 2H1      -1.067900
     12 C5          -4.0860     0.8520    -0.1510 ca         1 2H1      -0.379900
     13 CAI         -3.2140    -0.2930    -0.0240 cd         1 2H1       0.431500
     14 CAN         -1.7410    -0.2960    -0.1060 ca         1 2H1      -0.101900
     15 CAS         -0.9790     0.6320     0.6260 ca         1 2H1      -0.084000
     16 CAO         -1.0750    -1.3040    -0.8270 ca         1 2H1      -0.073000
     17 CAP          0.3330    -1.3570    -0.8750 ca         1 2H1      -0.061300
     18 CAX          1.0050    -2.4610    -1.6910 c3         1 2H1      -0.035800
     19 CAQ          1.1060    -0.4010    -0.1690 ca         1 2H1       0.321000
     20 NAT          2.4610    -0.4450    -0.2110 nb         1 2H1      -0.771000
     21 CAR          0.4260     0.5910     0.5860 ca         1 2H1      -0.118000
     22 CAW          1.1690     1.5400     1.3090 ca         1 2H1      -0.042000
     23 CAV          2.5660     1.4720     1.2490 ca         1 2H1      -0.168000
     24 CAU          3.1730     0.4710     0.4810 ca         1 2H1       0.602300
     25 OAY          4.5460     0.4370     0.4470 os         1 2H1      -0.458300
     26 CAZ          5.2430    -0.5620    -0.3190 c3         1 2H1       0.216900
     27 CBA          6.7400    -0.3370    -0.1560 ca         1 2H1      -0.100300
     28 CBB          7.4330     0.5070    -1.0470 ca         1 2H1      -0.084500
     29 CBC          8.8160     0.7140    -0.8960 ca         1 2H1      -0.116000
     30 CBD          9.5140     0.0790     0.1450 ca         1 2H1      -0.098000
     31 CBE          8.8270    -0.7610     1.0380 ca         1 2H1      -0.116000
     32 CBF          7.4440    -0.9690     0.8880 ca         1 2H1      -0.084500
     33 H1          -7.5060    -3.4510    -0.5130 hc         1 2H1       0.048367
     34 H2          -6.7420    -2.2760    -1.6020 hc         1 2H1       0.048367
     35 H3          -5.7520    -3.5140    -0.7970 hc         1 2H1       0.048367
     36 H4          -7.2840    -1.2540     0.5940 h1         1 2H1       0.083700
     37 H5          -5.3910    -3.3130     1.8440 hc         1 2H1       0.048367
     38 H6          -6.1390    -1.9380     2.6870 hc         1 2H1       0.048367
     39 H7          -7.1560    -3.2430     2.0440 hc         1 2H1       0.048367
     40 H8          -7.0040     3.1730    -0.3780 h5         1 2H1       0.046100
     41 H9          -2.6980     3.6100    -1.3190 hn         1 2H1       0.501500
     42 H10         -1.9380     2.0760    -1.0760 hn         1 2H1       0.501500
     43 H11         -1.4810     1.3810     1.2360 ha         1 2H1       0.123000
     44 H12         -1.6600    -2.0480    -1.3640 ha         1 2H1       0.128000
     45 H13          1.6360    -2.0370    -2.4810 hc         1 2H1       0.046367
     46 H14          1.6390    -3.0900    -1.0540 hc         1 2H1       0.046367
     47 H15          0.2720    -3.1180    -2.1740 hc         1 2H1       0.046367
     48 H16          0.6780     2.3110     1.8990 ha         1 2H1       0.122000
     49 H17          3.1810     2.1850     1.7890 ha         1 2H1       0.140000
     50 H18          4.9840    -1.5710     0.0300 h1         1 2H1       0.056200
     51 H19          4.9760    -0.4950    -1.3830 h1         1 2H1       0.056200
     52 H20          6.9000     1.0030    -1.8550 ha         1 2H1       0.114500
     53 H21          9.3460     1.3660    -1.5870 ha         1 2H1       0.114000
     54 H22         10.5830     0.2400     0.2620 ha         1 2H1       0.113000
     55 H23          9.3660    -1.2520     1.8460 ha         1 2H1       0.114000
     56 H24          6.9200    -1.6190     1.5850 ha         1 2H1       0.114500
@<TRIPOS>BOND
     1     1     2 1   
     2     1    33 1   
     3     1    34 1   
     4     1    35 1   
     5     2     3 1   
     6     2     4 1   
     7     2    36 1   
     8     3    37 1   
     9     3    38 1   
    10     3    39 1   
    11     4     5 1   
    12     4     6 1   
    13     5    13 2   
    14     6     7 ar  
    15     6    12 ar  
    16     7     8 ar  
    17     8     9 ar  
    18     8    40 1   
    19     9    10 ar  
    20    10    11 1   
    21    10    12 ar  
    22    11    41 1   
    23    11    42 1   
    24    12    13 1   
    25    13    14 1   
    26    14    15 ar  
    27    14    16 ar  
    28    15    21 ar  
    29    15    43 1   
    30    16    17 ar  
    31    16    44 1   
    32    17    18 1   
    33    17    19 ar  
    34    18    45 1   
    35    18    46 1   
    36    18    47 1   
    37    19    20 ar  
    38    19    21 ar  
    39    20    24 ar  
    40    21    22 ar  
    41    22    23 ar  
    42    22    48 1   
    43    23    24 ar  
    44    23    49 1   
    45    24    25 1   
    46    25    26 1   
    47    26    27 1   
    48    26    50 1   
    49    26    51 1   
    50    27    28 ar  
    51    27    32 ar  
    52    28    29 ar  
    53    28    52 1   
    54    29    30 ar  
    55    29    53 1   
    56    30    31 ar  
    57    30    54 1   
    58    31    32 ar  
    59    31    55 1   
    60    32    56 1   
@<TRIPOS>SUBSTRUCTURE
     1 2H1         1 TEMP              0 ****  ****    0 ROOT
