@<TRIPOS>MOLECULE
2H2
   45    46     1     0     0
SMALL
No Charge or Current Charge


@<TRIPOS>ATOM
      1 O2           6.4660    -0.9700    -2.5620 o          1 2H2      -0.529000
      2 S            6.2120    -1.0250    -1.1210 sy         1 2H2       1.156600
      3 O1           6.5420    -2.1930    -0.3030 o          1 2H2      -0.529000
      4 C13          6.8450     0.4780    -0.3550 ca         1 2H2      -0.313500
      5 C18          6.7930     1.6990    -1.0600 ca         1 2H2      -0.018000
      6 C17          7.2760     2.8760    -0.4630 ca         1 2H2      -0.128500
      7 C16          7.8120     2.8420     0.8360 ca         1 2H2      -0.055000
      8 C15          7.8650     1.6260     1.5390 ca         1 2H2      -0.128500
      9 C14          7.3840     0.4450     0.9490 ca         1 2H2      -0.018000
     10 N1           4.5690    -0.8150    -0.9620 n7         1 2H2      -0.874300
     11 C12          4.0710    -0.3500     0.3380 c3         1 2H2       0.297900
     12 C11          2.6060    -0.4060     0.3530 c1         1 2H2      -0.123100
     13 C10          1.3930    -0.4430     0.4020 cg         1 2H2      -0.095000
     14 C7          -0.0400    -0.4820     0.4510 ca         1 2H2       0.050000
     15 C6          -0.7940    -0.2000    -0.7000 ca         1 2H2      -0.097000
     16 C5          -2.1990    -0.2370    -0.6580 ca         1 2H2      -0.074500
     17 C8          -0.6990    -0.8010     1.6490 ca         1 2H2      -0.097000
     18 C9          -2.1030    -0.8400     1.6970 ca         1 2H2      -0.074500
     19 C4          -2.8760    -0.5590     0.5460 ca         1 2H2      -0.143600
     20 C3          -4.3900    -0.6090     0.6360 c          1 2H2       0.608700
     21 O           -4.9700    -0.8830     1.6790 o          1 2H2      -0.599100
     22 N           -5.0910    -0.3340    -0.5190 ns         1 2H2      -0.500900
     23 C2          -6.5520    -0.3070    -0.6260 c3         1 2H2       0.112000
     24 C1          -7.1400     1.0120    -0.0820 c3         1 2H2      -0.178400
     25 C           -8.6750     1.0980    -0.1880 c3         1 2H2       0.304000
     26 F           -9.2680     0.1040     0.5110 f          1 2H2      -0.117333
     27 F1          -9.1200     2.2750     0.3060 f          1 2H2      -0.117333
     28 F2          -9.0810     1.0080    -1.4750 f          1 2H2      -0.117333
     29 H1           6.3740     1.7400    -2.0650 ha         1 2H2       0.134500
     30 H2           7.2340     3.8170    -1.0070 ha         1 2H2       0.121500
     31 H3           8.1860     3.7540     1.2950 ha         1 2H2       0.119000
     32 H4           8.2800     1.6000     2.5450 ha         1 2H2       0.121500
     33 H5           7.4310    -0.4880     1.5090 ha         1 2H2       0.134500
     34 H6           4.2450    -1.7690    -1.1040 hn         1 2H2       0.487000
     35 H7           4.4490    -0.9740     1.1610 h1         1 2H2       0.071200
     36 H8           4.3760     0.6870     0.5370 h1         1 2H2       0.071200
     37 H9          -0.2910     0.0490    -1.6320 ha         1 2H2       0.125500
     38 H10         -2.7440    -0.0110    -1.5710 ha         1 2H2       0.126000
     39 H11         -0.1240    -1.0210     2.5460 ha         1 2H2       0.125500
     40 H12         -2.5900    -1.0900     2.6370 ha         1 2H2       0.126000
     41 H13         -4.5460    -0.1240    -1.3450 hn         1 2H2       0.321500
     42 H14         -6.8270    -0.4280    -1.6820 h1         1 2H2       0.068700
     43 H15         -6.9680    -1.1600    -0.0720 h1         1 2H2       0.068700
     44 H16         -6.8530     1.1310     0.9690 hc         1 2H2       0.088700
     45 H17         -6.7000     1.8540    -0.6290 hc         1 2H2       0.088700
@<TRIPOS>BOND
     1     1     2 2   
     2     2     3 2   
     3     2     4 1   
     4     2    10 1   
     5     4     5 ar  
     6     4     9 ar  
     7     5     6 ar  
     8     5    29 1   
     9     6     7 ar  
    10     6    30 1   
    11     7     8 ar  
    12     7    31 1   
    13     8     9 ar  
    14     8    32 1   
    15     9    33 1   
    16    10    11 1   
    17    10    34 1   
    18    11    12 1   
    19    11    35 1   
    20    11    36 1   
    21    12    13 3   
    22    13    14 1   
    23    14    15 ar  
    24    14    17 ar  
    25    15    16 ar  
    26    15    37 1   
    27    16    19 ar  
    28    16    38 1   
    29    17    18 ar  
    30    17    39 1   
    31    18    19 ar  
    32    18    40 1   
    33    19    20 1   
    34    20    21 2   
    35    20    22 1   
    36    22    23 1   
    37    22    41 1   
    38    23    24 1   
    39    23    42 1   
    40    23    43 1   
    41    24    25 1   
    42    24    44 1   
    43    24    45 1   
    44    25    26 1   
    45    25    27 1   
    46    25    28 1   
@<TRIPOS>SUBSTRUCTURE
     1 2H2         1 TEMP              0 ****  ****    0 ROOT
