@<TRIPOS>MOLECULE
2H2
   45    46     1     0     0
SMALL
abcg2


@<TRIPOS>ATOM
      1 O2           6.3260    -1.2710    -1.8270 o          1 2H2      -0.529000
      2 S            6.1240    -1.1850    -0.3920 sy         1 2H2       1.156600
      3 O1           6.4560    -2.3030     0.4710 o          1 2H2      -0.529000
      4 C13          6.9680     0.2610     0.1920 ca         1 2H2      -0.313500
      5 C18          7.3990     1.2110    -0.7240 ca         1 2H2      -0.018000
      6 C17          8.0200     2.3620    -0.2550 ca         1 2H2      -0.128500
      7 C16          8.1960     2.5530     1.1080 ca         1 2H2      -0.055000
      8 C15          7.7580     1.5930     2.0150 ca         1 2H2      -0.128500
      9 C14          7.1460     0.4370     1.5590 ca         1 2H2      -0.018000
     10 N1           4.5160    -0.9000    -0.1540 n7         1 2H2      -0.874300
     11 C12          3.8790     0.2200    -0.8420 c3         1 2H2       0.297900
     12 C11          2.4330     0.0930    -0.7070 c1         1 2H2      -0.123100
     13 C10          1.2510     0.0030    -0.5580 cg         1 2H2      -0.095000
     14 C7          -0.1560    -0.1630    -0.3650 ca         1 2H2       0.050000
     15 C6          -1.0850     0.4760    -1.2030 ca         1 2H2      -0.097000
     16 C5          -2.4490     0.3360    -0.9740 ca         1 2H2      -0.074500
     17 C8          -0.6280    -0.9530     0.6850 ca         1 2H2      -0.097000
     18 C9          -1.9780    -1.0800     0.9070 ca         1 2H2      -0.074500
     19 C4          -2.9080    -0.4520     0.0920 ca         1 2H2      -0.143600
     20 C3          -4.3620    -0.6190     0.4160 c          1 2H2       0.608700
     21 O           -4.7150    -0.9710     1.5380 o          1 2H2      -0.599100
     22 N           -5.2310    -0.3890    -0.5710 ns         1 2H2      -0.500900
     23 C2          -6.6610    -0.4500    -0.3760 c3         1 2H2       0.112000
     24 C1          -7.1900     0.8070     0.3160 c3         1 2H2      -0.178400
     25 C           -8.6780     0.7880     0.5090 c3         1 2H2       0.304000
     26 F           -9.0870    -0.2370     1.2780 f          1 2H2      -0.117333
     27 F1          -9.1230     1.9080     1.1000 f          1 2H2      -0.117333
     28 F2          -9.3490     0.6760    -0.6500 f          1 2H2      -0.117333
     29 H1           7.2580     1.0650    -1.7860 ha         1 2H2       0.134500
     30 H2           8.3630     3.1080    -0.9610 ha         1 2H2       0.121500
     31 H3           8.6780     3.4530     1.4660 ha         1 2H2       0.119000
     32 H4           7.8910     1.7480     3.0770 ha         1 2H2       0.121500
     33 H5           6.8050    -0.3080     2.2670 ha         1 2H2       0.134500
     34 H6           4.2460    -1.0140     0.8170 hn         1 2H2       0.487000
     35 H7           4.1980     1.1870    -0.4360 h1         1 2H2       0.071200
     36 H8           4.1580     0.1830    -1.8960 h1         1 2H2       0.071200
     37 H9          -0.7500     1.1030    -2.0180 ha         1 2H2       0.125500
     38 H10         -3.1320     0.8620    -1.6270 ha         1 2H2       0.126000
     39 H11          0.0660    -1.4680     1.3360 ha         1 2H2       0.125500
     40 H12         -2.3170    -1.6870     1.7360 ha         1 2H2       0.126000
     41 H13         -4.8940    -0.1240    -1.4820 hn         1 2H2       0.321500
     42 H14         -7.1080    -0.5600    -1.3610 h1         1 2H2       0.068700
     43 H15         -6.9110    -1.3480     0.1900 h1         1 2H2       0.068700
     44 H16         -6.7160     0.9450     1.2900 hc         1 2H2       0.088700
     45 H17         -6.9390     1.6810    -0.2890 hc         1 2H2       0.088700
@<TRIPOS>BOND
     1     1     2 2   
     2     2     3 2   
     3     2     4 1   
     4     2    10 1   
     5     4     5 ar  
     6     4     9 ar  
     7     5     6 ar  
     8     5    29 1   
     9     6     7 ar  
    10     6    30 1   
    11     7     8 ar  
    12     7    31 1   
    13     8     9 ar  
    14     8    32 1   
    15     9    33 1   
    16    10    11 1   
    17    10    34 1   
    18    11    12 1   
    19    11    35 1   
    20    11    36 1   
    21    12    13 3   
    22    13    14 1   
    23    14    15 ar  
    24    14    17 ar  
    25    15    16 ar  
    26    15    37 1   
    27    16    19 ar  
    28    16    38 1   
    29    17    18 ar  
    30    17    39 1   
    31    18    19 ar  
    32    18    40 1   
    33    19    20 1   
    34    20    21 2   
    35    20    22 1   
    36    22    23 1   
    37    22    41 1   
    38    23    24 1   
    39    23    42 1   
    40    23    43 1   
    41    24    25 1   
    42    24    44 1   
    43    24    45 1   
    44    25    26 1   
    45    25    27 1   
    46    25    28 1   
@<TRIPOS>SUBSTRUCTURE
     1 2H2         1 TEMP              0 ****  ****    0 ROOT
