@<TRIPOS>MOLECULE
2H3
   24    24     1     0     0
SMALL
bcc


@<TRIPOS>ATOM
      1 O3          -0.7810    -2.7010     0.2950 oh         1 2H3      -0.594633
      2 C3          -0.4150    -1.4440    -0.2150 c6         1 2H3       0.118433
      3 C4          -1.3940    -0.3620     0.2340 c6         1 2H3       0.118433
      4 O4          -2.6570    -0.7210    -0.2740 oh         1 2H3      -0.594633
      5 C5          -0.9590     1.0120    -0.2540 c6         1 2H3       0.118433
      6 O5          -1.9020     1.9450     0.2170 oh         1 2H3      -0.594633
      7 C6           0.4450     1.3270     0.2430 c6         1 2H3       0.118433
      8 O6           0.7980     2.5990    -0.2560 oh         1 2H3      -0.594633
      9 C1           1.4210     0.2520    -0.2240 c6         1 2H3       0.118433
     10 O1           2.7210     0.4840     0.2770 oh         1 2H3      -0.594633
     11 C2           0.9900    -1.1260     0.2700 c6         1 2H3       0.118433
     12 O2           1.8560    -2.1270    -0.2010 oh         1 2H3      -0.594633
     13 H1          -1.6830    -2.8830     0.0090 ho         1 2H3       0.421167
     14 H2          -0.4050    -1.4590    -1.3180 h1         1 2H3       0.055033
     15 H3          -1.4110    -0.3490     1.3360 h1         1 2H3       0.055033
     16 H4          -3.3160    -0.1230     0.0910 ho         1 2H3       0.421167
     17 H5          -0.9440     1.0000    -1.3570 h1         1 2H3       0.055033
     18 H6          -1.6510     2.8150    -0.1090 ho         1 2H3       0.421167
     19 H7           0.4320     1.3360     1.3440 h1         1 2H3       0.055033
     20 H8           1.4950     2.9670     0.2950 ho         1 2H3       0.421167
     21 H9           1.4300     0.2400    -1.3240 h1         1 2H3       0.055033
     22 H10          3.1880     1.0720    -0.3240 ho         1 2H3       0.421167
     23 H11          0.9800    -1.1080     1.3730 h1         1 2H3       0.055033
     24 H12          2.7530    -1.8650     0.0340 ho         1 2H3       0.421167
@<TRIPOS>BOND
     1     1     2 1   
     2     1    13 1   
     3     2     3 1   
     4     2    11 1   
     5     2    14 1   
     6     3     4 1   
     7     3     5 1   
     8     3    15 1   
     9     4    16 1   
    10     5     6 1   
    11     5     7 1   
    12     5    17 1   
    13     6    18 1   
    14     7     8 1   
    15     7     9 1   
    16     7    19 1   
    17     8    20 1   
    18     9    10 1   
    19     9    11 1   
    20     9    21 1   
    21    10    22 1   
    22    11    12 1   
    23    11    23 1   
    24    12    24 1   
@<TRIPOS>SUBSTRUCTURE
     1 2H3         1 TEMP              0 ****  ****    0 ROOT
