@<TRIPOS>MOLECULE
2H3
   24    24     1     0     0
SMALL
No Charge or Current Charge


@<TRIPOS>ATOM
      1 O3          -0.9340    -2.7940     0.2760 oh         1 2H3      -0.716833
      2 C3          -0.4320    -1.5370    -0.2190 c6         1 2H3       0.141633
      3 C4          -1.3680    -0.3960     0.2870 c6         1 2H3       0.141633
      4 O4          -2.7260    -0.6430    -0.1210 oh         1 2H3      -0.716833
      5 C5          -0.8940     0.9950    -0.2350 c6         1 2H3       0.141633
      6 O5          -1.8020     2.0200     0.2240 oh         1 2H3      -0.716833
      7 C6           0.5690     1.2660     0.2490 c6         1 2H3       0.141633
      8 O6           1.0500     2.5490    -0.2100 oh         1 2H3      -0.716833
      9 C1           1.5100     0.1380    -0.2740 c6         1 2H3       0.141633
     10 O1           2.8670     0.3940     0.1350 oh         1 2H3      -0.716833
     11 C2           1.0460    -1.2630     0.2320 c6         1 2H3       0.141633
     12 O2           1.9650    -2.2560    -0.2640 oh         1 2H3      -0.716833
     13 H1          -1.9160    -2.6920     0.2320 ho         1 2H3       0.520167
     14 H2          -0.4590    -1.5350    -1.3200 h1         1 2H3       0.055033
     15 H3          -1.3150    -0.3740     1.3870 h1         1 2H3       0.055033
     16 H4          -3.1770     0.2320    -0.0220 ho         1 2H3       0.520167
     17 H5          -0.8930     0.9630    -1.3360 h1         1 2H3       0.055033
     18 H6          -1.6870     2.7950    -0.3770 ho         1 2H3       0.520167
     19 H7           0.5800     1.2360     1.3500 h1         1 2H3       0.055033
     20 H8           0.6640     3.2310     0.3920 ho         1 2H3       0.520167
     21 H9           1.4530     0.1400    -1.3740 h1         1 2H3       0.055033
     22 H10          2.9740     1.3720     0.0360 ho         1 2H3       0.520167
     23 H11          1.0710    -1.2520     1.3330 h1         1 2H3       0.055033
     24 H12          2.8450    -1.8090    -0.2190 ho         1 2H3       0.520167
@<TRIPOS>BOND
     1     1     2 1   
     2     1    13 1   
     3     2     3 1   
     4     2    11 1   
     5     2    14 1   
     6     3     4 1   
     7     3     5 1   
     8     3    15 1   
     9     4    16 1   
    10     5     6 1   
    11     5     7 1   
    12     5    17 1   
    13     6    18 1   
    14     7     8 1   
    15     7     9 1   
    16     7    19 1   
    17     8    20 1   
    18     9    10 1   
    19     9    11 1   
    20     9    21 1   
    21    10    22 1   
    22    11    12 1   
    23    11    23 1   
    24    12    24 1   
@<TRIPOS>SUBSTRUCTURE
     1 2H3         1 TEMP              0 ****  ****    0 ROOT
