@<TRIPOS>MOLECULE
2H4
   38    40     1     0     0
SMALL
No Charge or Current Charge


@<TRIPOS>ATOM
      1 OAC          5.9110     0.7020     0.1460 oh         1 2H4      -0.557100
      2 CAQ          4.5640     0.4690     0.0570 ca         1 2H4       0.049100
      3 CAH          4.0870    -0.8260    -0.1890 ca         1 2H4      -0.162000
      4 CAR          3.6530     1.5310     0.2020 ca         1 2H4       0.119100
      5 OAD          4.1240     2.7920     0.4240 oh         1 2H4      -0.537100
      6 CAI          2.2720     1.3000     0.1130 ca         1 2H4      -0.122000
      7 CAT          1.7740    -0.0060    -0.1110 ca         1 2H4      -0.070300
      8 CAS          2.7010    -1.0670    -0.2850 ca         1 2H4      -0.057300
      9 CAK          2.2160    -2.4930    -0.5640 c6         1 2H4      -0.027100
     10 CAJ          0.7420    -2.5450    -1.0120 c6         1 2H4       0.165800
     11 NAM         -0.0840    -1.7070    -0.1260 n7         1 2H4      -0.870400
     12 CAU          0.2470    -0.2660    -0.2340 c6         1 2H4       0.233800
     13 CAL         -0.6120     0.5100     0.8130 c3         1 2H4      -0.024100
     14 CAN         -2.1150     0.2600     0.6900 ca         1 2H4      -0.085300
     15 CAG         -2.8300     0.7820    -0.4080 ca         1 2H4      -0.163000
     16 CAE         -2.7980    -0.4900     1.6690 ca         1 2H4      -0.094000
     17 CAF         -4.1810    -0.7190     1.5540 ca         1 2H4      -0.123000
     18 CAO         -4.8860    -0.1970     0.4590 ca         1 2H4       0.120100
     19 OAA         -6.2270    -0.4120     0.3370 oh         1 2H4      -0.535100
     20 CAP         -4.2120     0.5550    -0.5250 ca         1 2H4       0.043100
     21 OAB         -4.9040     1.0640    -1.5920 oh         1 2H4      -0.559100
     22 H1           6.3890    -0.1480     0.0180 ho         1 2H4       0.474000
     23 H2           4.7850    -1.6510    -0.3120 ha         1 2H4       0.111000
     24 H3           5.1050     2.7110     0.4460 ho         1 2H4       0.481000
     25 H4           1.6000     2.1460     0.2080 ha         1 2H4       0.128000
     26 H5           2.8450    -2.9670    -1.3300 hc         1 2H4       0.054200
     27 H6           2.3360    -3.0930     0.3480 hc         1 2H4       0.054200
     28 H7           0.6520    -2.1870    -2.0490 h1         1 2H4       0.032700
     29 H8           0.3840    -3.5850    -0.9830 h1         1 2H4       0.032700
     30 H9          -1.0740    -1.8180    -0.3740 hn         1 2H4       0.424000
     31 H11         -0.0610     0.0780    -1.2330 h1         1 2H4       0.025700
     32 H12         -0.2670     0.2530     1.8220 hc         1 2H4       0.059700
     33 H13         -0.4480     1.5870     0.7130 hc         1 2H4       0.059700
     34 H14         -2.3060     1.3630    -1.1640 ha         1 2H4       0.111000
     35 H15         -2.2570    -0.9000     2.5200 ha         1 2H4       0.125000
     36 H16         -4.7030    -1.2990     2.3110 ha         1 2H4       0.131000
     37 H17         -6.4960     0.0420    -0.4930 ho         1 2H4       0.481000
     38 H18         -4.2800     1.5590    -2.1680 ho         1 2H4       0.473000
@<TRIPOS>BOND
     1     1     2 1   
     2     1    22 1   
     3     2     3 ar  
     4     2     4 ar  
     5     3     8 ar  
     6     3    23 1   
     7     4     5 1   
     8     4     6 ar  
     9     5    24 1   
    10     6     7 ar  
    11     6    25 1   
    12     7     8 ar  
    13     7    12 1   
    14     8     9 1   
    15     9    10 1   
    16     9    26 1   
    17     9    27 1   
    18    10    11 1   
    19    10    28 1   
    20    10    29 1   
    21    11    12 1   
    22    11    30 1   
    23    12    13 1   
    24    12    31 1   
    25    13    14 1   
    26    13    32 1   
    27    13    33 1   
    28    14    15 ar  
    29    14    16 ar  
    30    15    20 ar  
    31    15    34 1   
    32    16    17 ar  
    33    16    35 1   
    34    17    18 ar  
    35    17    36 1   
    36    18    19 1   
    37    18    20 ar  
    38    19    37 1   
    39    20    21 1   
    40    21    38 1   
@<TRIPOS>SUBSTRUCTURE
     1 2H4         1 TEMP              0 ****  ****    0 ROOT
