@<TRIPOS>MOLECULE
2H4
   38    40     1     0     0
SMALL
abcg2


@<TRIPOS>ATOM
      1 OAC          5.7800     0.7980     0.1210 oh         1 2H4      -0.557100
      2 CAQ          4.4720     0.4600     0.0300 ca         1 2H4       0.049100
      3 CAH          4.0090    -0.8350    -0.0990 ca         1 2H4      -0.162000
      4 CAR          3.5530     1.5170     0.0500 ca         1 2H4       0.119100
      5 OAD          3.9540     2.8050     0.1500 oh         1 2H4      -0.537100
      6 CAI          2.2040     1.2360    -0.0380 ca         1 2H4      -0.122000
      7 CAT          1.7270    -0.0730    -0.1400 ca         1 2H4      -0.070300
      8 CAS          2.6450    -1.1200    -0.1910 ca         1 2H4      -0.057300
      9 CAK          2.1900    -2.5400    -0.3870 c6         1 2H4      -0.027100
     10 CAJ          0.7890    -2.5660    -0.9660 c6         1 2H4       0.165800
     11 NAM         -0.0570    -1.7350    -0.1340 n7         1 2H4      -0.870400
     12 CAU          0.2350    -0.3200    -0.2530 c6         1 2H4       0.233800
     13 CAL         -0.5570     0.4340     0.8290 c3         1 2H4      -0.024100
     14 CAN         -2.0410     0.2310     0.7030 ca         1 2H4      -0.085300
     15 CAG         -2.7530     0.9030    -0.2920 ca         1 2H4      -0.163000
     16 CAE         -2.7350    -0.6370     1.5350 ca         1 2H4      -0.094000
     17 CAF         -4.1040    -0.8290     1.3830 ca         1 2H4      -0.123000
     18 CAO         -4.8060    -0.1620     0.3930 ca         1 2H4       0.120100
     19 OAA         -6.1360    -0.3680     0.2700 oh         1 2H4      -0.535100
     20 CAP         -4.1150     0.7160    -0.4530 ca         1 2H4       0.043100
     21 OAB         -4.8570     1.3430    -1.3970 oh         1 2H4      -0.559100
     22 H1           6.3400     0.0150     0.0850 ho         1 2H4       0.474000
     23 H2           4.7230    -1.6510    -0.1400 ha         1 2H4       0.111000
     24 H3           4.9160     2.8580     0.1760 ho         1 2H4       0.481000
     25 H4           1.5140     2.0720    -0.0350 ha         1 2H4       0.128000
     26 H5           2.8840    -3.0670    -1.0460 hc         1 2H4       0.054200
     27 H6           2.1940    -3.0790     0.5660 hc         1 2H4       0.054200
     28 H7           0.8170    -2.2350    -2.0170 h1         1 2H4       0.032700
     29 H8           0.3970    -3.5830    -0.9620 h1         1 2H4       0.032700
     30 H9          -1.0300    -1.8890    -0.3640 hn         1 2H4       0.424000
     31 H11         -0.0840     0.0780    -1.2340 h1         1 2H4       0.025700
     32 H12         -0.2100     0.0960     1.8080 hc         1 2H4       0.059700
     33 H13         -0.3380     1.5020     0.7630 hc         1 2H4       0.059700
     34 H14         -2.2340     1.5910    -0.9520 ha         1 2H4       0.111000
     35 H15         -2.2100    -1.1690     2.3180 ha         1 2H4       0.125000
     36 H16         -4.6380    -1.5050     2.0400 ha         1 2H4       0.131000
     37 H17         -6.4890     0.1320    -0.4740 ho         1 2H4       0.481000
     38 H18         -4.3040     1.9050    -1.9500 ho         1 2H4       0.473000
@<TRIPOS>BOND
     1     1     2 1   
     2     1    22 1   
     3     2     3 ar  
     4     2     4 ar  
     5     3     8 ar  
     6     3    23 1   
     7     4     5 1   
     8     4     6 ar  
     9     5    24 1   
    10     6     7 ar  
    11     6    25 1   
    12     7     8 ar  
    13     7    12 1   
    14     8     9 1   
    15     9    10 1   
    16     9    26 1   
    17     9    27 1   
    18    10    11 1   
    19    10    28 1   
    20    10    29 1   
    21    11    12 1   
    22    11    30 1   
    23    12    13 1   
    24    12    31 1   
    25    13    14 1   
    26    13    32 1   
    27    13    33 1   
    28    14    15 ar  
    29    14    16 ar  
    30    15    20 ar  
    31    15    34 1   
    32    16    17 ar  
    33    16    35 1   
    34    17    18 ar  
    35    17    36 1   
    36    18    19 1   
    37    18    20 ar  
    38    19    37 1   
    39    20    21 1   
    40    21    38 1   
@<TRIPOS>SUBSTRUCTURE
     1 2H4         1 TEMP              0 ****  ****    0 ROOT
