@<TRIPOS>MOLECULE
2H5
   23    23     1     0     0
SMALL
bcc


@<TRIPOS>ATOM
      1 C2          -1.5240    -0.3900     0.1490 c6         1 2H5       0.099100
      2 C6           2.6630     0.4810     0.0430 c3         1 2H5       0.149400
      3 C3          -1.1110     0.9130    -0.5020 c6         1 2H5       0.142600
      4 C4           0.2900     1.3350    -0.0810 c6         1 2H5       0.090100
      5 C5           1.2390     0.1770    -0.3700 c6         1 2H5       0.163100
      6 C1          -0.4460    -1.4380    -0.1430 c6         1 2H5       0.315900
      7 O1          -0.7710    -2.5870     0.5460 oh         1 2H5      -0.580800
      8 O2          -2.7640    -0.7750    -0.3840 oh         1 2H5      -0.587800
      9 F3          -2.0150     1.9150    -0.1540 f          1 2H5      -0.236300
     10 O4           0.3550     1.6420     1.2880 oh         1 2H5      -0.576800
     11 O5           0.8110    -0.9900     0.2980 os         1 2H5      -0.408600
     12 O6           3.4970    -0.5440    -0.4420 oh         1 2H5      -0.593800
     13 H1          -1.5750    -0.2480     1.2380 h1         1 2H5       0.080700
     14 H2           2.9330     1.4580    -0.3800 h1         1 2H5       0.038200
     15 H3           2.7240     0.5720     1.1330 h1         1 2H5       0.038200
     16 H4          -1.1450     0.8080    -1.5920 h1         1 2H5       0.068700
     17 H5           0.5980     2.1910    -0.6990 h1         1 2H5       0.050700
     18 H6           1.2290     0.0150    -1.4610 h1         1 2H5       0.048700
     19 H7          -0.4080    -1.6150    -1.2330 h2         1 2H5       0.024700
     20 H8          -0.3360    -3.3440     0.1390 ho         1 2H5       0.425000
     21 H9          -3.0800    -1.5390     0.1090 ho         1 2H5       0.424000
     22 H10         -0.2000     2.4100     1.4560 ho         1 2H5       0.416000
     23 H11          4.3940    -0.3620    -0.1490 ho         1 2H5       0.408000
@<TRIPOS>BOND
     1     1     3 1   
     2     1     6 1   
     3     1     8 1   
     4     1    13 1   
     5     2     5 1   
     6     2    12 1   
     7     2    14 1   
     8     2    15 1   
     9     3     4 1   
    10     3     9 1   
    11     3    16 1   
    12     4     5 1   
    13     4    10 1   
    14     4    17 1   
    15     5    11 1   
    16     5    18 1   
    17     6     7 1   
    18     6    11 1   
    19     6    19 1   
    20     7    20 1   
    21     8    21 1   
    22    10    22 1   
    23    12    23 1   
@<TRIPOS>SUBSTRUCTURE
     1 2H5         1 TEMP              0 ****  ****    0 ROOT
