@<TRIPOS>MOLECULE
2H5
   23    23     1     0     0
SMALL
No Charge or Current Charge


@<TRIPOS>ATOM
      1 C2          -1.6050    -0.3720     0.1210 c6         1 2H5       0.122300
      2 C6           2.7220     0.4110    -0.0270 c3         1 2H5       0.172600
      3 C3          -1.1630     0.9960    -0.4860 c6         1 2H5       0.161300
      4 C4           0.2940     1.3670    -0.0650 c6         1 2H5       0.113300
      5 C5           1.2310     0.1680    -0.4370 c6         1 2H5       0.186300
      6 C1          -0.5360    -1.4550    -0.2480 c6         1 2H5       0.362300
      7 O1          -0.8070    -2.6770     0.4150 oh         1 2H5      -0.643000
      8 O2          -2.9280    -0.7620    -0.3290 oh         1 2H5      -0.710000
      9 F3          -2.0350     2.0130    -0.0270 f          1 2H5      -0.255000
     10 O4           0.3550     1.6840     1.3470 oh         1 2H5      -0.699000
     11 O5           0.7640    -1.0570     0.1930 os         1 2H5      -0.455000
     12 O6           3.6020    -0.6680    -0.4090 oh         1 2H5      -0.716000
     13 H1          -1.6000    -0.2700     1.2170 h1         1 2H5       0.080700
     14 H2           3.0530     1.3490    -0.4940 h1         1 2H5       0.038200
     15 H3           2.7610     0.5580     1.0610 h1         1 2H5       0.038200
     16 H4          -1.2380     0.9620    -1.5820 h1         1 2H5       0.068700
     17 H5           0.6080     2.2420    -0.6540 h1         1 2H5       0.050700
     18 H6           1.2090     0.0290    -1.5280 h1         1 2H5       0.048700
     19 H7          -0.5200    -1.6180    -1.3370 h2         1 2H5       0.024700
     20 H8           0.0840    -3.0130     0.6480 ho         1 2H5       0.464000
     21 H9          -3.0400    -1.7030    -0.0500 ho         1 2H5       0.523000
     22 H10         -0.3430     2.3610     1.5160 ho         1 2H5       0.515000
     23 H11          4.4900    -0.4600    -0.0340 ho         1 2H5       0.507000
@<TRIPOS>BOND
     1     1     3 1   
     2     1     6 1   
     3     1     8 1   
     4     1    13 1   
     5     2     5 1   
     6     2    12 1   
     7     2    14 1   
     8     2    15 1   
     9     3     4 1   
    10     3     9 1   
    11     3    16 1   
    12     4     5 1   
    13     4    10 1   
    14     4    17 1   
    15     5    11 1   
    16     5    18 1   
    17     6     7 1   
    18     6    11 1   
    19     6    19 1   
    20     7    20 1   
    21     8    21 1   
    22    10    22 1   
    23    12    23 1   
@<TRIPOS>SUBSTRUCTURE
     1 2H5         1 TEMP              0 ****  ****    0 ROOT
