@<TRIPOS>MOLECULE
2H7
   55    58     1     0     0
SMALL
No Charge or Current Charge


@<TRIPOS>ATOM
      1 C10          4.9120     0.4230     0.1450 ca         1 2H7      -0.164600
      2 C13          5.9710    -0.1750     2.2730 ca         1 2H7      -0.164000
      3 C15          6.9170    -0.9870     0.1890 ca         1 2H7      -0.164000
      4 C20         -4.2900    -0.0290     0.1130 ca         1 2H7      -0.075000
      5 C21         -5.0720     1.0760     0.4980 ca         1 2H7      -0.033000
      6 C22         -4.5700     1.9990     1.4420 ca         1 2H7      -0.028000
      7 C24         -2.5140     0.7010     1.6060 ca         1 2H7      -0.103000
      8 C26         -7.1290     2.3750     0.3300 ca         1 2H7      -0.106000
      9 C28         -5.3510     3.1050     1.8260 ca         1 2H7      -0.097000
     10 C01         -1.5420    -1.2190    -1.1820 c3         1 2H7       0.097300
     11 N02         -0.7630     0.0350    -1.2720 na         1 2H7       0.125800
     12 C03          0.3280     0.3980    -0.5220 cc         1 2H7      -0.218000
     13 C04          0.6480     1.6350    -1.0060 cd         1 2H7       0.170300
     14 N05         -0.2360     1.9750    -2.0090 nd         1 2H7      -0.331000
     15 N06         -1.0930     1.0020    -2.1740 nc         1 2H7      -0.183800
     16 C07          1.7640     2.5550    -0.5660 c3         1 2H7       0.090700
     17 N08          2.8980     1.8430     0.0440 ns         1 2H7      -0.501900
     18 C09          3.8370     1.1220    -0.6630 c          1 2H7       0.623700
     19 O11          3.7950     1.0560    -1.8840 o          1 2H7      -0.584100
     20 C12          4.9570     0.4900     1.5610 ca         1 2H7      -0.046000
     21 C14          6.9470    -0.9100     1.5870 ca         1 2H7       0.190000
     22 C16          5.9060    -0.3250    -0.5290 ca         1 2H7      -0.046000
     23 C18         -2.1590    -1.4110     0.2300 c3         1 2H7      -0.043100
     24 C19         -3.0090    -0.2220     0.6650 ca         1 2H7      -0.095300
     25 C23         -3.2900     1.8060     1.9940 ca         1 2H7      -0.088000
     26 C25         -6.3520     1.2680    -0.0560 ca         1 2H7      -0.094000
     27 C27         -6.6290     3.2920     1.2700 ca         1 2H7      -0.103000
     28 C29         -0.6930    -2.4350    -1.6400 c3         1 2H7      -0.179400
     29 C30         -1.5380    -3.7010    -1.7820 c          1 2H7       0.604100
     30 N31         -1.2650    -4.7050    -0.8610 ns         1 2H7      -0.390400
     31 O32         -2.1500    -5.8420    -0.7160 oh         1 2H7      -0.415100
     32 O33         -2.3710    -3.8280    -2.6690 o          1 2H7      -0.562100
     33 F17          7.9180    -1.5470     2.2760 f          1 2H7      -0.175000
     34 H1           6.0010    -0.1210     3.3590 ha         1 2H7       0.134500
     35 H2           7.6760    -1.5590    -0.3380 ha         1 2H7       0.134500
     36 H4          -1.5240     0.5670     2.0360 ha         1 2H7       0.105000
     37 H5          -8.1180     2.5210    -0.0990 ha         1 2H7       0.113000
     38 H6          -4.9710     3.8200     2.5520 ha         1 2H7       0.114000
     39 H7          -2.3780    -1.1190    -1.8880 h1         1 2H7       0.119700
     40 H8           0.7650    -0.2140     0.2540 h4         1 2H7       0.159000
     41 H9           2.1240     3.1270    -1.4320 h1         1 2H7       0.065700
     42 H10          1.3640     3.2700     0.1640 h1         1 2H7       0.065700
     43 H11          2.9930     1.8630     1.0500 hn         1 2H7       0.312500
     44 H12          4.2160     1.0500     2.1270 ha         1 2H7       0.127500
     45 H13          5.8990    -0.3960    -1.6160 ha         1 2H7       0.127500
     46 H14         -2.7790    -2.3150     0.2390 hc         1 2H7       0.059700
     47 H15         -1.3550    -1.5900     0.9550 hc         1 2H7       0.059700
     48 H16         -2.8950     2.5120     2.7200 ha         1 2H7       0.115000
     49 H17         -6.7460     0.5630    -0.7840 ha         1 2H7       0.115000
     50 H18         -7.2310     4.1480     1.5680 ha         1 2H7       0.113000
     51 H19         -0.2680    -2.2040    -2.6240 hc         1 2H7       0.072200
     52 H20          0.1230    -2.5970    -0.9250 hc         1 2H7       0.072200
     53 H21         -0.6550    -4.5050    -0.0690 hn         1 2H7       0.339500
     54 H22         -1.5410    -6.6180    -0.7540 ho         1 2H7       0.446000
     55 H3          -4.6770    -0.7380    -0.6150 ha         1 2H7       0.117000
@<TRIPOS>BOND
     1     1    18 1   
     2     1    20 ar  
     3     1    22 ar  
     4     2    20 ar  
     5     2    21 ar  
     6     2    34 1   
     7     3    21 ar  
     8     3    22 ar  
     9     3    35 1   
    10     4     5 ar  
    11     4    24 ar  
    12     4    55 1   
    13     5     6 ar  
    14     5    26 ar  
    15     6     9 ar  
    16     6    25 ar  
    17     7    24 ar  
    18     7    25 ar  
    19     7    36 1   
    20     8    26 ar  
    21     8    27 ar  
    22     8    37 1   
    23     9    27 ar  
    24     9    38 1   
    25    10    11 1   
    26    10    23 1   
    27    10    28 1   
    28    10    39 1   
    29    11    12 1   
    30    11    15 1   
    31    12    13 2   
    32    12    40 1   
    33    13    14 1   
    34    13    16 1   
    35    14    15 2   
    36    16    17 1   
    37    16    41 1   
    38    16    42 1   
    39    17    18 1   
    40    17    43 1   
    41    18    19 2   
    42    20    44 1   
    43    21    33 1   
    44    22    45 1   
    45    23    24 1   
    46    23    46 1   
    47    23    47 1   
    48    25    48 1   
    49    26    49 1   
    50    27    50 1   
    51    28    29 1   
    52    28    51 1   
    53    28    52 1   
    54    29    30 1   
    55    29    32 2   
    56    30    31 1   
    57    30    53 1   
    58    31    54 1   
@<TRIPOS>SUBSTRUCTURE
     1 2H7         1 TEMP              0 ****  ****    0 ROOT
