@<TRIPOS>MOLECULE
2H7
   55    58     1     0     0
SMALL
bcc


@<TRIPOS>ATOM
      1 C10          4.9730     1.4250    -0.1640 ca         1 2H7      -0.164600
      2 C13          6.6600    -0.0410    -1.0850 ca         1 2H7      -0.182000
      3 C15          7.0150     2.3530    -1.0650 ca         1 2H7      -0.182000
      4 C20         -4.1740     0.1500    -0.4290 ca         1 2H7      -0.093000
      5 C21         -4.4810     1.5090    -0.6640 ca         1 2H7      -0.033000
      6 C22         -4.0270     2.4880     0.2570 ca         1 2H7      -0.028000
      7 C24         -3.0050     0.7430     1.5800 ca         1 2H7      -0.121000
      8 C26         -5.5100     3.2480    -1.9940 ca         1 2H7      -0.124000
      9 C28         -4.3350     3.8490     0.0230 ca         1 2H7      -0.115000
     10 C01         -1.8900    -2.1060     0.0090 c3         1 2H7       0.068000
     11 N02         -0.7750    -1.1980     0.2140 na         1 2H7       0.104400
     12 C03         -0.0390    -0.9940     1.3210 cc         1 2H7      -0.250600
     13 C04          0.7900     0.0440     0.9870 cd         1 2H7       0.235600
     14 N05          0.5100     0.4020    -0.2840 nd         1 2H7      -0.331000
     15 N06         -0.4310    -0.3480    -0.7380 nc         1 2H7      -0.183800
     16 C07          1.8270     0.7290     1.8140 c3         1 2H7       0.090700
     17 N08          3.1410     0.6870     1.2140 ns         1 2H7      -0.568900
     18 C09          3.6390     1.6820     0.4620 c          1 2H7       0.690700
     19 O11          3.0680     2.7520     0.3020 o          1 2H7      -0.584100
     20 C12          5.4260     0.1470    -0.4830 ca         1 2H7      -0.064000
     21 C14          7.4360     1.0690    -1.3600 ca         1 2H7       0.154900
     22 C16          5.7740     2.5220    -0.4750 ca         1 2H7      -0.064000
     23 C18         -3.0850    -1.6840     0.8740 c3         1 2H7      -0.043100
     24 C19         -3.4480    -0.2410     0.6660 ca         1 2H7      -0.095300
     25 C23         -3.2840     2.0670     1.3830 ca         1 2H7      -0.106000
     26 C25         -5.2290     1.9240    -1.7920 ca         1 2H7      -0.112000
     27 C27         -5.0590     4.2210    -1.0770 ca         1 2H7      -0.121000
     28 C29         -1.4620    -3.5470     0.2700 c3         1 2H7      -0.179400
     29 C30         -2.5380    -4.5050    -0.1960 c          1 2H7       0.671100
     30 N31         -2.8200    -5.4720     0.6910 ns         1 2H7      -0.457400
     31 O32         -3.8360    -6.3440     0.4550 oh         1 2H7      -0.376100
     32 O33         -3.0690    -4.4100    -1.2890 o          1 2H7      -0.562100
     33 F17          8.6310     0.8960    -1.9380 f          1 2H7      -0.139900
     34 H1           7.0080    -1.0320    -1.3400 ha         1 2H7       0.152500
     35 H2           7.6430     3.2040    -1.2940 ha         1 2H7       0.152500
     36 H4          -2.4400     0.4390     2.4530 ha         1 2H7       0.123000
     37 H5          -6.0800     3.5550    -2.8620 ha         1 2H7       0.131000
     38 H6          -3.9900     4.5960     0.7290 ha         1 2H7       0.132000
     39 H7          -2.1520    -1.9980    -1.0430 h1         1 2H7       0.119700
     40 H8          -0.1450    -1.5670     2.2270 h4         1 2H7       0.177000
     41 H9           1.5510     1.7710     1.9740 h1         1 2H7       0.065700
     42 H10          1.8780     0.2600     2.7960 h1         1 2H7       0.065700
     43 H11          3.6830    -0.1480     1.3620 hn         1 2H7       0.312500
     44 H12          4.8160    -0.7270    -0.2930 ha         1 2H7       0.145500
     45 H13          5.4300     3.5220    -0.2480 ha         1 2H7       0.145500
     46 H14         -3.9320    -2.3230     0.6160 hc         1 2H7       0.059700
     47 H15         -2.8600    -1.8740     1.9270 hc         1 2H7       0.059700
     48 H16         -2.9390     2.8080     2.0950 ha         1 2H7       0.133000
     49 H17         -5.5760     1.1770    -2.4960 ha         1 2H7       0.133000
     50 H18         -5.2890     5.2650    -1.2490 ha         1 2H7       0.131000
     51 H19         -0.5570    -3.7690    -0.3020 hc         1 2H7       0.072200
     52 H20         -1.2180    -3.6920     1.3250 hc         1 2H7       0.072200
     53 H21         -2.4530    -5.4830     1.6310 hn         1 2H7       0.339500
     54 H22         -3.4380    -7.1220     0.0400 ho         1 2H7       0.407000
     55 H3          -4.5250    -0.5930    -1.1380 ha         1 2H7       0.135000
@<TRIPOS>BOND
     1     1    18 1   
     2     1    20 ar  
     3     1    22 ar  
     4     2    20 ar  
     5     2    21 ar  
     6     2    34 1   
     7     3    21 ar  
     8     3    22 ar  
     9     3    35 1   
    10     4     5 ar  
    11     4    24 ar  
    12     4    55 1   
    13     5     6 ar  
    14     5    26 ar  
    15     6     9 ar  
    16     6    25 ar  
    17     7    24 ar  
    18     7    25 ar  
    19     7    36 1   
    20     8    26 ar  
    21     8    27 ar  
    22     8    37 1   
    23     9    27 ar  
    24     9    38 1   
    25    10    11 1   
    26    10    23 1   
    27    10    28 1   
    28    10    39 1   
    29    11    12 1   
    30    11    15 1   
    31    12    13 2   
    32    12    40 1   
    33    13    14 1   
    34    13    16 1   
    35    14    15 2   
    36    16    17 1   
    37    16    41 1   
    38    16    42 1   
    39    17    18 1   
    40    17    43 1   
    41    18    19 2   
    42    20    44 1   
    43    21    33 1   
    44    22    45 1   
    45    23    24 1   
    46    23    46 1   
    47    23    47 1   
    48    25    48 1   
    49    26    49 1   
    50    27    50 1   
    51    28    29 1   
    52    28    51 1   
    53    28    52 1   
    54    29    30 1   
    55    29    32 2   
    56    30    31 1   
    57    30    53 1   
    58    31    54 1   
@<TRIPOS>SUBSTRUCTURE
     1 2H7         1 TEMP              0 ****  ****    0 ROOT
