@<TRIPOS>MOLECULE
2H8
   43    43     1     0     0
SMALL
bcc


@<TRIPOS>ATOM
      1 CAA          0.1510    -3.5010     1.7780 c3         1 2H8      -0.086100
      2 CAI         -1.0660    -3.5110     0.8640 c3         1 2H8      -0.084900
      3 CAR         -1.0360    -2.4780    -0.2570 c3         1 2H8       0.156100
      4 CAJ         -2.2760    -2.6110    -1.1370 c3         1 2H8      -0.084900
      5 CAB         -2.3350    -1.6520    -2.3180 c3         1 2H8      -0.086100
      6 OAM         -0.9560    -1.1780     0.3070 os         1 2H8      -0.413600
      7 CAS         -0.0010    -0.3070    -0.2460 c6         1 2H8       0.130100
      8 CAK          1.4100    -0.6050     0.2520 c6         1 2H8      -0.063200
      9 CAP          2.3880     0.4740    -0.1100 ce         1 2H8      -0.147400
     10 CAO          3.8760     0.1530    -0.0350 c          1 2H8       0.920800
     11 OAG          4.6790     1.0570    -0.3400 o          1 2H8      -0.828300
     12 OAF          4.1680    -1.0010     0.3370 o          1 2H8      -0.828300
     13 CAH          1.9750     1.6920    -0.4600 c2         1 2H8      -0.217200
     14 CAQ          0.5430     2.1220    -0.5570 c6         1 2H8       0.198700
     15 NAD          0.3820     3.4350     0.0570 n8         1 2H8      -0.869800
     16 CAT         -0.3890     1.1230     0.1280 c6         1 2H8       0.108700
     17 NAL         -1.7540     1.4230    -0.2370 ns         1 2H8      -0.565900
     18 CAN         -2.8130     1.3510     0.5920 c          1 2H8       0.676100
     19 OAE         -2.7190     1.1810     1.7980 o          1 2H8      -0.598100
     20 CAC         -4.1510     1.4890    -0.0940 c3         1 2H8      -0.185100
     21 H1           0.0930    -4.3110     2.5050 hc         1 2H8       0.033700
     22 H2           1.0750    -3.6290     1.2120 hc         1 2H8       0.033700
     23 H3           0.2300    -2.5650     2.3310 hc         1 2H8       0.033700
     24 H4          -1.1620    -4.4970     0.4020 hc         1 2H8       0.033450
     25 H5          -1.9740    -3.3660     1.4590 hc         1 2H8       0.033450
     26 H6          -0.1490    -2.6710    -0.8790 h1         1 2H8       0.042700
     27 H7          -2.3090    -3.6400    -1.5080 hc         1 2H8       0.033450
     28 H8          -3.1670    -2.4830    -0.5140 hc         1 2H8       0.033450
     29 H9          -3.1900    -1.8780    -2.9560 hc         1 2H8       0.033700
     30 H10         -2.4420    -0.6190    -1.9920 hc         1 2H8       0.033700
     31 H11         -1.4370    -1.7160    -2.9360 hc         1 2H8       0.033700
     32 H12         -0.0070    -0.3820    -1.3450 h1         1 2H8       0.019700
     33 H13          1.3840    -0.7310     1.3400 hc         1 2H8       0.064700
     34 H14          1.7530    -1.5620    -0.1450 hc         1 2H8       0.064700
     35 H16          2.7170     2.4410    -0.7180 ha         1 2H8       0.145000
     36 H17          0.2800     2.1390    -1.6300 h1         1 2H8      -0.006300
     37 H18          0.9850     4.0990    -0.4140 hn         1 2H8       0.325800
     38 H19         -0.5620     3.7640    -0.1120 hn         1 2H8       0.325800
     39 H21         -0.2940     1.2490     1.2100 h1         1 2H8       0.112700
     40 H22         -1.9400     1.5320    -1.2220 hn         1 2H8       0.289500
     41 H23         -4.5550     0.4930    -0.2890 hc         1 2H8       0.049033
     42 H24         -4.8550     2.0100     0.5510 hc         1 2H8       0.049033
     43 H25         -4.0920     2.0130    -1.0470 hc         1 2H8       0.049033
@<TRIPOS>BOND
     1     1     2 1   
     2     1    21 1   
     3     1    22 1   
     4     1    23 1   
     5     2     3 1   
     6     2    24 1   
     7     2    25 1   
     8     3     4 1   
     9     3     6 1   
    10     3    26 1   
    11     4     5 1   
    12     4    27 1   
    13     4    28 1   
    14     5    29 1   
    15     5    30 1   
    16     5    31 1   
    17     6     7 1   
    18     7     8 1   
    19     7    16 1   
    20     7    32 1   
    21     8     9 1   
    22     8    33 1   
    23     8    34 1   
    24     9    10 1   
    25     9    13 2   
    26    10    11 1   
    27    10    12 1   
    28    13    14 1   
    29    13    35 1   
    30    14    15 1   
    31    14    16 1   
    32    14    36 1   
    33    15    37 1   
    34    15    38 1   
    35    16    17 1   
    36    16    39 1   
    37    17    18 1   
    38    17    40 1   
    39    18    19 2   
    40    18    20 1   
    41    20    41 1   
    42    20    42 1   
    43    20    43 1   
@<TRIPOS>SUBSTRUCTURE
     1 2H8         1 TEMP              0 ****  ****    0 ROOT
