@<TRIPOS>MOLECULE
2H8
   43    43     1     0     0
SMALL
No Charge or Current Charge


@<TRIPOS>ATOM
      1 CAA          0.0140    -3.5570     1.9240 c3         1 2H8      -0.086100
      2 CAI         -1.1700    -3.5550     0.9330 c3         1 2H8      -0.084900
      3 CAR         -1.0070    -2.5640    -0.2450 c3         1 2H8       0.179300
      4 CAJ         -2.1970    -2.6480    -1.2410 c3         1 2H8      -0.084900
      5 CAB         -2.0880    -1.7490    -2.4910 c3         1 2H8      -0.086100
      6 OAM         -0.9620    -1.2340     0.3140 os         1 2H8      -0.460000
      7 CAS         -0.0270    -0.2800    -0.2520 c6         1 2H8       0.153300
      8 CAK          1.4260    -0.6060     0.1870 c6         1 2H8      -0.063200
      9 CAP          2.4410     0.5050    -0.1620 ce         1 2H8      -0.147400
     10 CAO          3.9160     0.1420    -0.1040 c          1 2H8       0.710200
     11 OAG          4.7420     0.9980    -0.3890 o          1 2H8      -0.723000
     12 OAF          4.2340    -0.9900     0.2310 o          1 2H8      -0.723000
     13 CAH          2.0070     1.7520    -0.4990 c2         1 2H8      -0.267200
     14 CAQ          0.5490     2.1520    -0.5960 c6         1 2H8       0.198700
     15 NAD          0.3850     3.5380    -0.1330 n8         1 2H8      -0.980200
     16 CAT         -0.3980     1.1720     0.1620 c6         1 2H8       0.108700
     17 NAL         -1.8190     1.4770    -0.1290 ns         1 2H8      -0.498900
     18 CAN         -2.8620     1.3440     0.7570 c          1 2H8       0.609100
     19 OAE         -2.7000     1.0800     1.9400 o          1 2H8      -0.598100
     20 CAC         -4.2410     1.5730     0.1500 c3         1 2H8      -0.185100
     21 H1          -0.1340    -4.3250     2.6920 hc         1 2H8       0.033700
     22 H2           0.9550    -3.7690     1.4030 hc         1 2H8       0.033700
     23 H3           0.1050    -2.5880     2.4280 hc         1 2H8       0.033700
     24 H4          -1.2840    -4.5680     0.5290 hc         1 2H8       0.033450
     25 H5          -2.0950    -3.3280     1.4790 hc         1 2H8       0.033450
     26 H6          -0.0790    -2.8090    -0.7790 h1         1 2H8       0.042700
     27 H7          -2.2900    -3.6870    -1.5800 hc         1 2H8       0.033450
     28 H8          -3.1290    -2.4100    -0.7140 hc         1 2H8       0.033450
     29 H9          -2.8980    -1.9780    -3.1940 hc         1 2H8       0.033700
     30 H10         -2.1690    -0.6900    -2.2230 hc         1 2H8       0.033700
     31 H11         -1.1330    -1.9120    -3.0060 hc         1 2H8       0.033700
     32 H12         -0.0800    -0.3430    -1.3480 h1         1 2H8       0.019700
     33 H13          1.4490    -0.7740     1.2720 hc         1 2H8       0.064700
     34 H14          1.7380    -1.5500    -0.2790 hc         1 2H8       0.064700
     35 H16          2.7250     2.5350    -0.7450 ha         1 2H8       0.195000
     36 H17          0.2660     2.1500    -1.6580 h1         1 2H8      -0.006300
     37 H18          0.8490     4.1620    -0.8020 hn         1 2H8       0.381000
     38 H19         -0.6070     3.7850    -0.2130 hn         1 2H8       0.381000
     39 H21         -0.2200     1.2790     1.2410 h1         1 2H8       0.112700
     40 H22         -2.0700     1.7020    -1.0830 hn         1 2H8       0.289500
     41 H23         -4.3780     0.8840    -0.6910 hc         1 2H8       0.049033
     42 H24         -5.0480     1.4790     0.8850 hc         1 2H8       0.049033
     43 H25         -4.2570     2.5510    -0.3460 hc         1 2H8       0.049033
@<TRIPOS>BOND
     1     1     2 1   
     2     1    21 1   
     3     1    22 1   
     4     1    23 1   
     5     2     3 1   
     6     2    24 1   
     7     2    25 1   
     8     3     4 1   
     9     3     6 1   
    10     3    26 1   
    11     4     5 1   
    12     4    27 1   
    13     4    28 1   
    14     5    29 1   
    15     5    30 1   
    16     5    31 1   
    17     6     7 1   
    18     7     8 1   
    19     7    16 1   
    20     7    32 1   
    21     8     9 1   
    22     8    33 1   
    23     8    34 1   
    24     9    10 1   
    25     9    13 2   
    26    10    11 1   
    27    10    12 1   
    28    13    14 1   
    29    13    35 1   
    30    14    15 1   
    31    14    16 1   
    32    14    36 1   
    33    15    37 1   
    34    15    38 1   
    35    16    17 1   
    36    16    39 1   
    37    17    18 1   
    38    17    40 1   
    39    18    19 2   
    40    18    20 1   
    41    20    41 1   
    42    20    42 1   
    43    20    43 1   
@<TRIPOS>SUBSTRUCTURE
     1 2H8         1 TEMP              0 ****  ****    0 ROOT
