@<TRIPOS>MOLECULE
2HA
   12    11     1     0     0
SMALL
No Charge or Current Charge


@<TRIPOS>ATOM
      1 O1          -0.0670    -0.0090     2.5280 oh         1 2HA      -0.624500
      2 O2          -1.3620    -0.0680     0.0090 o          1 2HA      -0.448100
      3 O3          -0.0930    -0.0480    -2.5240 oh         1 2HA      -0.624500
      4 C1           0.7170     0.0040     1.3080 c3         1 2HA       0.058600
      5 C2          -0.1320    -0.0310     0.0020 c          1 2HA       0.555100
      6 C3           0.7030    -0.0170    -1.3130 c3         1 2HA       0.058600
      7 H1           0.5610     0.0150     3.2850 ho         1 2HA       0.446000
      8 H3           0.5270    -0.0360    -3.2890 ho         1 2HA       0.446000
      9 H1C1         1.3420     0.9060     1.2680 h1         1 2HA       0.033200
     10 H1C2         1.3930    -0.8610     1.2820 h1         1 2HA       0.033200
     11 H3C1         1.3280     0.8860    -1.2930 h1         1 2HA       0.033200
     12 H3C2         1.3800    -0.8810    -1.2800 h1         1 2HA       0.033200
@<TRIPOS>BOND
     1     1     4 1   
     2     1     7 1   
     3     2     5 2   
     4     3     6 1   
     5     3     8 1   
     6     4     5 1   
     7     4     9 1   
     8     4    10 1   
     9     5     6 1   
    10     6    11 1   
    11     6    12 1   
@<TRIPOS>SUBSTRUCTURE
     1 2HA         1 TEMP              0 ****  ****    0 ROOT
