@<TRIPOS>MOLECULE
2HA
   12    11     1     0     0
SMALL
bcc


@<TRIPOS>ATOM
      1 O1          -0.1040    -0.0270     2.3770 oh         1 2HA      -0.562300
      2 O2          -1.2880    -0.0650     0.0080 o          1 2HA      -0.448100
      3 O3          -0.1300    -0.0310    -2.3730 oh         1 2HA      -0.562300
      4 C1           0.7390     0.0150     1.2660 c3         1 2HA       0.035400
      5 C2          -0.0840    -0.0290     0.0020 c          1 2HA       0.555100
      6 C3           0.7260    -0.0250    -1.2720 c3         1 2HA       0.035400
      7 H1           0.4460    -0.0020     3.1650 ho         1 2HA       0.407000
      8 H3           0.4130    -0.0340    -3.1670 ho         1 2HA       0.407000
      9 H1C1         1.3530     0.9260     1.2290 h1         1 2HA       0.033200
     10 H1C2         1.4470    -0.8260     1.2340 h1         1 2HA       0.033200
     11 H3C1         1.3850     0.8560    -1.2450 h1         1 2HA       0.033200
     12 H3C2         1.3940    -0.8980    -1.2430 h1         1 2HA       0.033200
@<TRIPOS>BOND
     1     1     4 1   
     2     1     7 1   
     3     2     5 2   
     4     3     6 1   
     5     3     8 1   
     6     4     5 1   
     7     4     9 1   
     8     4    10 1   
     9     5     6 1   
    10     6    11 1   
    11     6    12 1   
@<TRIPOS>SUBSTRUCTURE
     1 2HA         1 TEMP              0 ****  ****    0 ROOT
