@<TRIPOS>MOLECULE
2HB
   53    57     1     0     0
SMALL
abcg2


@<TRIPOS>ATOM
      1 C8           2.3030     1.8050    -0.7820 ca         1 2HB      -0.076300
      2 C5           5.7280     0.4760    -0.1960 c6         1 2HB       0.181300
      3 C2           3.9940    -1.7930     0.6930 c6         1 2HB      -0.299900
      4 C4           6.2960    -0.3410     0.9560 c6         1 2HB      -0.299900
      5 C1           3.6910    -0.8080    -0.4250 c6         1 2HB       0.181300
      6 C7           3.7430     1.4960    -1.0900 c3         1 2HB       0.219100
      7 C9           1.9660     2.4020     0.4300 ca         1 2HB      -0.102000
      8 C10          0.6470     2.6930     0.7310 ca         1 2HB      -0.075500
      9 C11         -0.3700     2.3720    -0.1670 ca         1 2HB      -0.046000
     10 C12         -0.0410     1.7610    -1.3750 ca         1 2HB      -0.075500
     11 C13          1.2860     1.4930    -1.6780 ca         1 2HB      -0.102000
     12 C14         -1.7580     2.7310     0.1610 cc         1 2HB       0.008000
     13 C15         -2.1450     3.9910     0.5330 cd         1 2HB      -0.157000
     14 C16         -3.4910     4.2820     0.8310 cd         1 2HB      -0.078000
     15 C17         -4.4520     3.3120     0.7550 cc         1 2HB      -0.095000
     16 C18         -4.0530     2.0200     0.3860 cc         1 2HB      -0.044000
     17 C21         -3.7880     0.0090    -0.0800 cd         1 2HB       0.609900
     18 C24         -5.1640    -2.0260    -0.2700 c          1 2HB       0.645100
     19 C26         -4.9960    -3.4810    -0.5110 cx         1 2HB      -0.251700
     20 C27         -5.9020    -4.4230     0.2420 cx         1 2HB      -0.094900
     21 C28         -6.1090    -4.2160    -1.2110 cx         1 2HB      -0.094900
     22 S3           5.7550    -2.0380     0.8420 s6         1 2HB       1.082000
     23 O29          6.2540    -2.5960    -0.4180 o          1 2HB      -0.519000
     24 N6           4.2770     0.4970    -0.1770 n3         1 2HB      -0.733600
     25 N19         -2.7330     1.7820     0.1010 na         1 2HB       0.307400
     26 N20         -2.5590     0.4880    -0.1970 nc         1 2HB      -0.661100
     27 N23         -3.9840    -1.3340    -0.3060 ns         1 2HB      -0.403400
     28 O25         -6.2410    -1.5070    -0.0590 o          1 2HB      -0.536100
     29 N22         -4.7340     0.8840     0.2670 nd         1 2HB      -0.387300
     30 H1           6.0900     1.4980    -0.0690 h1         1 2HB       0.056450
     31 H2           6.1390     0.1110    -1.1490 h1         1 2HB       0.056450
     32 H3           3.6360    -1.4250     1.6550 h1         1 2HB       0.110450
     33 H4           3.5520    -2.7710     0.4930 h1         1 2HB       0.110450
     34 H5           7.3870    -0.3520     0.9370 h1         1 2HB       0.110450
     35 H6           5.9580     0.0430     1.9200 h1         1 2HB       0.110450
     36 H7           4.0070    -1.2300    -1.3920 h1         1 2HB       0.056450
     37 H8           2.6050    -0.7080    -0.4710 h1         1 2HB       0.056450
     38 H9           3.8450     1.1930    -2.1430 h1         1 2HB       0.045700
     39 H10          4.3350     2.4060    -0.9710 h1         1 2HB       0.045700
     40 H11          2.7440     2.6390     1.1450 ha         1 2HB       0.120000
     41 H12          0.4000     3.1600     1.6760 ha         1 2HB       0.125000
     42 H13         -0.8140     1.5060    -2.0870 ha         1 2HB       0.125000
     43 H14          1.5320     1.0280    -2.6250 ha         1 2HB       0.120000
     44 H15         -1.3990     4.7710     0.5740 ha         1 2HB       0.137000
     45 H16         -3.7620     5.2900     1.1140 ha         1 2HB       0.128000
     46 H17         -5.4920     3.5060     0.9750 ha         1 2HB       0.152000
     47 H18         -3.9880    -3.8280    -0.7050 hc         1 2HB       0.085700
     48 H19         -5.4620    -5.3520     0.5790 hc         1 2HB       0.083200
     49 H20         -6.6130    -3.9820     0.9280 hc         1 2HB       0.083200
     50 H21         -6.9650    -3.6340    -1.5280 hc         1 2HB       0.083200
     51 H22         -5.8140    -5.0000    -1.8950 hc         1 2HB       0.083200
     52 H24         -3.1430    -1.8530    -0.5090 hn         1 2HB       0.334500
     53 O30          6.0590    -2.7530     2.0810 o          1 2HB      -0.519000
@<TRIPOS>BOND
     1     1     6 1   
     2     1     7 ar  
     3     1    11 ar  
     4     2     4 1   
     5     2    24 1   
     6     2    30 1   
     7     2    31 1   
     8     3     5 1   
     9     3    22 1   
    10     3    32 1   
    11     3    33 1   
    12     4    22 1   
    13     4    34 1   
    14     4    35 1   
    15     5    24 1   
    16     5    36 1   
    17     5    37 1   
    18     6    24 1   
    19     6    38 1   
    20     6    39 1   
    21     7     8 ar  
    22     7    40 1   
    23     8     9 ar  
    24     8    41 1   
    25     9    10 ar  
    26     9    12 1   
    27    10    11 ar  
    28    10    42 1   
    29    11    43 1   
    30    12    13 2   
    31    12    25 1   
    32    13    14 1   
    33    13    44 1   
    34    14    15 2   
    35    14    45 1   
    36    15    16 1   
    37    15    46 1   
    38    16    25 1   
    39    16    29 2   
    40    17    26 2   
    41    17    27 1   
    42    17    29 1   
    43    18    19 1   
    44    18    27 1   
    45    18    28 2   
    46    19    20 1   
    47    19    21 1   
    48    19    47 1   
    49    20    21 1   
    50    20    48 1   
    51    20    49 1   
    52    21    50 1   
    53    21    51 1   
    54    22    23 2   
    55    22    53 2   
    56    25    26 1   
    57    27    52 1   
@<TRIPOS>SUBSTRUCTURE
     1 2HB         1 TEMP              0 ****  ****    0 ROOT
