@<TRIPOS>MOLECULE
2HB
   53    57     1     0     0
SMALL
No Charge or Current Charge


@<TRIPOS>ATOM
      1 C8           2.2760     1.7110    -0.7420 ca         1 2HB      -0.076300
      2 C5           5.8400     0.3880    -0.3090 c6         1 2HB       0.181300
      3 C2           4.1920    -1.6860     1.1340 c6         1 2HB      -0.299900
      4 C4           6.5380    -0.3110     0.8610 c6         1 2HB      -0.299900
      5 C1           3.7160    -0.8550    -0.0610 c6         1 2HB       0.181300
      6 C7           3.7370     1.4010    -1.0620 c3         1 2HB       0.219100
      7 C9           1.9370     2.3600     0.4590 ca         1 2HB      -0.102000
      8 C10          0.5940     2.6450     0.7610 ca         1 2HB      -0.075500
      9 C11         -0.4350     2.2840    -0.1340 ca         1 2HB      -0.046000
     10 C12         -0.0900     1.6350    -1.3380 ca         1 2HB      -0.075500
     11 C13          1.2540     1.3510    -1.6390 ca         1 2HB      -0.102000
     12 C14         -1.8370     2.5890     0.1830 cc         1 2HB       0.008000
     13 C15         -2.1460     3.8740     0.6430 cd         1 2HB      -0.157000
     14 C16         -3.4950     4.2860     0.9520 cd         1 2HB      -0.078000
     15 C17         -4.5190     3.3850     0.7860 cc         1 2HB      -0.095000
     16 C18         -4.2040     2.0850     0.3060 cc         1 2HB      -0.044000
     17 C21         -4.0970     0.0590    -0.3590 cd         1 2HB       0.609900
     18 C24         -5.6270    -1.8150    -0.7530 c          1 2HB       0.645100
     19 C26         -5.5730    -3.2530    -1.2110 cx         1 2HB      -0.251700
     20 C27         -4.8340    -4.2670    -0.3570 cx         1 2HB      -0.094900
     21 C28         -6.3420    -4.3020    -0.4300 cx         1 2HB      -0.094900
     22 S3           5.9570    -1.9990     1.0510 s6         1 2HB       1.082000
     23 O29          6.2540    -2.7490    -0.1770 o          1 2HB      -0.519000
     24 N6           4.3750     0.4780    -0.0880 n3         1 2HB      -0.733600
     25 N19         -2.9290     1.7180     0.0020 na         1 2HB       0.307400
     26 N20         -2.8260     0.4330    -0.4020 nc         1 2HB      -0.661100
     27 N23         -4.4020    -1.2130    -0.7210 ns         1 2HB      -0.403400
     28 O25         -6.6780    -1.2660    -0.4570 o          1 2HB      -0.536100
     29 N22         -4.9760     1.0490     0.0740 nd         1 2HB      -0.387300
     30 H1           6.2700     1.3970    -0.4020 h1         1 2HB       0.056450
     31 H2           6.0630    -0.1380    -1.2510 h1         1 2HB       0.056450
     32 H3           4.0160    -1.1560     2.0770 h1         1 2HB       0.110450
     33 H4           3.7050    -2.6680     1.1620 h1         1 2HB       0.110450
     34 H5           7.6210    -0.3730     0.7060 h1         1 2HB       0.110450
     35 H6           6.3240     0.1980     1.8080 h1         1 2HB       0.110450
     36 H7           3.9010    -1.4020    -0.9990 h1         1 2HB       0.056450
     37 H8           2.6250    -0.7450     0.0280 h1         1 2HB       0.056450
     38 H9           3.8070     0.9840    -2.0760 h1         1 2HB       0.045700
     39 H10          4.2790     2.3570    -1.0760 h1         1 2HB       0.045700
     40 H11          2.7190     2.6370     1.1630 ha         1 2HB       0.120000
     41 H12          0.3540     3.1380     1.7000 ha         1 2HB       0.125000
     42 H13         -0.8630     1.3570    -2.0500 ha         1 2HB       0.125000
     43 H14          1.4970     0.8490    -2.5730 ha         1 2HB       0.120000
     44 H15         -1.3490     4.6000     0.7680 ha         1 2HB       0.137000
     45 H16         -3.6990     5.2910     1.3100 ha         1 2HB       0.128000
     46 H17         -5.5490     3.6440     1.0120 ha         1 2HB       0.152000
     47 H18         -5.5250    -3.3870    -2.2880 hc         1 2HB       0.085700
     48 H19         -4.2850    -5.0570    -0.8650 hc         1 2HB       0.083200
     49 H20         -4.3850    -3.9330     0.5760 hc         1 2HB       0.083200
     50 H21         -6.8980    -3.9870     0.4520 hc         1 2HB       0.083200
     51 H22         -6.8040    -5.1140    -0.9870 hc         1 2HB       0.083200
     52 H24         -3.6350    -1.8010    -1.0040 hn         1 2HB       0.334500
     53 O30          6.4100    -2.5130     2.3500 o          1 2HB      -0.519000
@<TRIPOS>BOND
     1     1     6 1   
     2     1     7 ar  
     3     1    11 ar  
     4     2     4 1   
     5     2    24 1   
     6     2    30 1   
     7     2    31 1   
     8     3     5 1   
     9     3    22 1   
    10     3    32 1   
    11     3    33 1   
    12     4    22 1   
    13     4    34 1   
    14     4    35 1   
    15     5    24 1   
    16     5    36 1   
    17     5    37 1   
    18     6    24 1   
    19     6    38 1   
    20     6    39 1   
    21     7     8 ar  
    22     7    40 1   
    23     8     9 ar  
    24     8    41 1   
    25     9    10 ar  
    26     9    12 1   
    27    10    11 ar  
    28    10    42 1   
    29    11    43 1   
    30    12    13 2   
    31    12    25 1   
    32    13    14 1   
    33    13    44 1   
    34    14    15 2   
    35    14    45 1   
    36    15    16 1   
    37    15    46 1   
    38    16    25 1   
    39    16    29 2   
    40    17    26 2   
    41    17    27 1   
    42    17    29 1   
    43    18    19 1   
    44    18    27 1   
    45    18    28 2   
    46    19    20 1   
    47    19    21 1   
    48    19    47 1   
    49    20    21 1   
    50    20    48 1   
    51    20    49 1   
    52    21    50 1   
    53    21    51 1   
    54    22    23 2   
    55    22    53 2   
    56    25    26 1   
    57    27    52 1   
@<TRIPOS>SUBSTRUCTURE
     1 2HB         1 TEMP              0 ****  ****    0 ROOT
