@<TRIPOS>MOLECULE
2HC
   19    19     1     0     0
SMALL
bcc


@<TRIPOS>ATOM
      1 CA          -0.4240     0.2040     1.6510 ce         1 2HC      -0.164200
      2 C            0.0460     0.0520     3.0810 c          1 2HC       0.905800
      3 OXT         -0.7590     0.4400     3.9530 o          1 2HC      -0.827800
      4 O            1.1770    -0.4370     3.2710 o          1 2HC      -0.827800
      5 CB           0.3230    -0.1400     0.6000 cf         1 2HC      -0.206200
      6 CG          -0.0880    -0.0570    -0.8050 ca         1 2HC      -0.086800
      7 CD1         -1.4260    -0.2050    -1.1830 ca         1 2HC      -0.100000
      8 CE1         -1.8230    -0.1500    -2.5070 ca         1 2HC      -0.174000
      9 CZ          -0.8670     0.0500    -3.4970 ca         1 2HC      -0.125000
     10 CE2          0.4660     0.2020    -3.1550 ca         1 2HC      -0.176000
     11 CD2          0.8600     0.1540    -1.8200 ca         1 2HC       0.133100
     12 OH           2.1740     0.3310    -1.5710 oh         1 2HC      -0.521100
     13 HA          -1.4150     0.6240     1.5020 ha         1 2HC       0.096000
     14 HB           1.3120    -0.5360     0.8180 ha         1 2HC       0.138000
     15 HD1         -2.1650    -0.3890    -0.4140 ha         1 2HC       0.135000
     16 HE1         -2.8660    -0.2760    -2.7670 ha         1 2HC       0.116000
     17 HZ          -1.1570     0.0880    -4.5390 ha         1 2HC       0.112000
     18 HE2          1.2140     0.3660    -3.9210 ha         1 2HC       0.127000
     19 HOH          2.3450     0.4330    -0.6290 ho         1 2HC       0.445000
@<TRIPOS>BOND
     1     1     2 1   
     2     1     5 2   
     3     1    13 1   
     4     2     3 1   
     5     2     4 1   
     6     5     6 1   
     7     5    14 1   
     8     6     7 ar  
     9     6    11 ar  
    10     7     8 ar  
    11     7    15 1   
    12     8     9 ar  
    13     8    16 1   
    14     9    10 ar  
    15     9    17 1   
    16    10    11 ar  
    17    10    18 1   
    18    11    12 1   
    19    12    19 1   
@<TRIPOS>SUBSTRUCTURE
     1 2HC         1 TEMP              0 ****  ****    0 ROOT
