@<TRIPOS>MOLECULE
2HC
   19    19     1     0     0
SMALL
No Charge or Current Charge


@<TRIPOS>ATOM
      1 CA          -0.4260     0.1430     1.7140 ce         1 2HC      -0.214200
      2 C            0.0290     0.0360     3.1370 c          1 2HC       0.695200
      3 OXT         -0.7860     0.2830     4.0120 o          1 2HC      -0.722500
      4 O            1.1850    -0.2900     3.3670 o          1 2HC      -0.722500
      5 CB           0.3370    -0.0890     0.6000 cf         1 2HC      -0.256200
      6 CG          -0.0640    -0.0260    -0.8270 ca         1 2HC      -0.086800
      7 CD1         -1.4280    -0.1370    -1.1790 ca         1 2HC      -0.082000
      8 CE1         -1.8280    -0.1080    -2.5260 ca         1 2HC      -0.156000
      9 CZ          -0.8730     0.0310    -3.5430 ca         1 2HC      -0.107000
     10 CE2          0.4850     0.1470    -3.2100 ca         1 2HC      -0.158000
     11 CD2          0.8910     0.1230    -1.8650 ca         1 2HC       0.133100
     12 OH           2.2190     0.2790    -1.5870 oh         1 2HC      -0.560100
     13 HA          -1.4630     0.4450     1.5980 ha         1 2HC       0.146000
     14 HB           1.3680    -0.3990     0.7800 ha         1 2HC       0.188000
     15 HD1         -2.1870    -0.2660    -0.4120 ha         1 2HC       0.117000
     16 HE1         -2.8820    -0.2000    -2.7810 ha         1 2HC       0.098000
     17 HZ          -1.1830     0.0520    -4.5860 ha         1 2HC       0.094000
     18 HE2          1.2260     0.2650    -3.9970 ha         1 2HC       0.109000
     19 HOH          2.3050     0.4640    -0.6280 ho         1 2HC       0.484000
@<TRIPOS>BOND
     1     1     2 1   
     2     1     5 2   
     3     1    13 1   
     4     2     3 1   
     5     2     4 1   
     6     5     6 1   
     7     5    14 1   
     8     6     7 ar  
     9     6    11 ar  
    10     7     8 ar  
    11     7    15 1   
    12     8     9 ar  
    13     8    16 1   
    14     9    10 ar  
    15     9    17 1   
    16    10    11 ar  
    17    10    18 1   
    18    11    12 1   
    19    12    19 1   
@<TRIPOS>SUBSTRUCTURE
     1 2HC         1 TEMP              0 ****  ****    0 ROOT
