@<TRIPOS>MOLECULE
2HD
   65    64     1     0     0
SMALL
abcg2


@<TRIPOS>ATOM
      1 O20          5.4860    25.5820    10.1570 o          1 2HD      -0.526000
      2 P9           4.7510    26.7080     9.5260 p5         1 2HD       1.148800
      3 C8           5.0470    28.3300    10.2500 c3         1 2HD      -0.459400
      4 C7           4.5750    28.4420    11.7020 c3         1 2HD      -0.046400
      5 C6           4.8140    29.8310    12.2890 c3         1 2HD      -0.071400
      6 C5           4.3300    29.9520    13.7320 c3         1 2HD      -0.076400
      7 C4           4.5450    31.3400    14.3310 c3         1 2HD      -0.074400
      8 C3           4.0670    31.4550    15.7760 c3         1 2HD      -0.076400
      9 C2           4.2650    32.8460    16.3750 c3         1 2HD      -0.075400
     10 C1           3.7870    32.9490    17.8210 c3         1 2HD      -0.088100
     11 O10          3.1770    26.4400     9.5940 os         1 2HD      -0.598400
     12 C11          2.2000    27.3380     9.0220 c3         1 2HD       0.186600
     13 C12          0.7930    26.8830     9.3810 c3         1 2HD       0.175300
     14 O21          0.4110    27.2350    10.7060 os         1 2HD      -0.472000
     15 C22          0.9570    26.4640    11.7860 c3         1 2HD       0.154600
     16 C23          0.7100    27.2260    13.0740 c3         1 2HD      -0.082400
     17 C24          1.1400    26.4500    14.3220 c3         1 2HD      -0.073400
     18 C25          2.6470    26.2100    14.4220 c3         1 2HD      -0.095100
     19 C13          0.5510    25.4090     9.0730 c3         1 2HD       0.133600
     20 O14          0.6740    25.2380     7.6700 os         1 2HD      -0.476000
     21 C15          0.9580    23.8950     7.2680 c3         1 2HD       0.161600
     22 C16          2.4320    23.5360     7.3990 c3         1 2HD      -0.111400
     23 C17          3.3470    24.3830     6.5180 c3         1 2HD      -0.069400
     24 C18          4.8200    24.0140     6.6700 c3         1 2HD      -0.098100
     25 H2           6.1230    28.5120    10.1670 hc         1 2HD       0.074200
     26 H3           4.5510    29.0730     9.6170 hc         1 2HD       0.074200
     27 H4           3.5100    28.2080    11.7600 hc         1 2HD       0.050200
     28 H5           5.0880    27.6930    12.3110 hc         1 2HD       0.050200
     29 H6           5.8820    30.0690    12.2390 hc         1 2HD       0.039200
     30 H7           4.3010    30.5750    11.6700 hc         1 2HD       0.039200
     31 H8           3.2650    29.7000    13.7770 hc         1 2HD       0.039200
     32 H9           4.8460    29.2080    14.3480 hc         1 2HD       0.039200
     33 H10          5.6090    31.5960    14.2800 hc         1 2HD       0.037200
     34 H11          4.0210    32.0820    13.7170 hc         1 2HD       0.037200
     35 H12          3.0050    31.1890    15.8280 hc         1 2HD       0.037700
     36 H13          4.5980    30.7190    16.3910 hc         1 2HD       0.037700
     37 H14          5.3260    33.1130    16.3200 hc         1 2HD       0.036200
     38 H15          3.7330    33.5800    15.7600 hc         1 2HD       0.036200
     39 H16          3.9380    33.9540    18.2230 hc         1 2HD       0.032033
     40 H17          2.7220    32.7150    17.8980 hc         1 2HD       0.032033
     41 H18          4.3270    32.2470    18.4630 hc         1 2HD       0.032033
     42 H19          2.3530    28.3470     9.4070 h1         1 2HD       0.046700
     43 H20          2.3190    27.3420     7.9380 h1         1 2HD       0.046700
     44 H21          0.1280    27.4710     8.7420 h1         1 2HD       0.085700
     45 H22          0.4650    25.4850    11.8300 h1         1 2HD       0.037700
     46 H23          2.0220    26.3000    11.6300 h1         1 2HD       0.037700
     47 H24          1.2440    28.1800    13.0290 hc         1 2HD       0.048700
     48 H25         -0.3570    27.4580    13.1390 hc         1 2HD       0.048700
     49 H26          0.8090    27.0040    15.2040 hc         1 2HD       0.039700
     50 H27          0.6130    25.4900    14.3480 hc         1 2HD       0.039700
     51 H28          2.8990    25.6950    15.3510 hc         1 2HD       0.035367
     52 H29          3.0180    25.6010    13.5950 hc         1 2HD       0.035367
     53 H30          3.1920    27.1560    14.4040 hc         1 2HD       0.035367
     54 H31         -0.4560    25.1290     9.4060 h1         1 2HD       0.045700
     55 H32          1.2730    24.7870     9.6040 h1         1 2HD       0.045700
     56 H33          0.3370    23.2000     7.8440 h1         1 2HD       0.045700
     57 H34          0.6510    23.8320     6.2210 h1         1 2HD       0.045700
     58 H35          2.5410    22.4780     7.1350 hc         1 2HD       0.050200
     59 H36          2.7430    23.6250     8.4450 hc         1 2HD       0.050200
     60 H37          3.2080    25.4380     6.7660 hc         1 2HD       0.034700
     61 H38          3.0430    24.2680     5.4720 hc         1 2HD       0.034700
     62 H39          5.4550    24.6460     6.0450 hc         1 2HD       0.037033
     63 H40          5.1470    24.1330     7.7060 hc         1 2HD       0.037033
     64 H41          4.9960    22.9730     6.3830 hc         1 2HD       0.037033
     65 H1           5.0130    26.8620     8.1510 hp         1 2HD      -0.114400
@<TRIPOS>BOND
     1     1     2 2   
     2     2     3 1   
     3     2    11 1   
     4     2    65 1   
     5     3     4 1   
     6     3    25 1   
     7     3    26 1   
     8     4     5 1   
     9     4    27 1   
    10     4    28 1   
    11     5     6 1   
    12     5    29 1   
    13     5    30 1   
    14     6     7 1   
    15     6    31 1   
    16     6    32 1   
    17     7     8 1   
    18     7    33 1   
    19     7    34 1   
    20     8     9 1   
    21     8    35 1   
    22     8    36 1   
    23     9    10 1   
    24     9    37 1   
    25     9    38 1   
    26    10    39 1   
    27    10    40 1   
    28    10    41 1   
    29    11    12 1   
    30    12    13 1   
    31    12    42 1   
    32    12    43 1   
    33    13    14 1   
    34    13    19 1   
    35    13    44 1   
    36    14    15 1   
    37    15    16 1   
    38    15    45 1   
    39    15    46 1   
    40    16    17 1   
    41    16    47 1   
    42    16    48 1   
    43    17    18 1   
    44    17    49 1   
    45    17    50 1   
    46    18    51 1   
    47    18    52 1   
    48    18    53 1   
    49    19    20 1   
    50    19    54 1   
    51    19    55 1   
    52    20    21 1   
    53    21    22 1   
    54    21    56 1   
    55    21    57 1   
    56    22    23 1   
    57    22    58 1   
    58    22    59 1   
    59    23    24 1   
    60    23    60 1   
    61    23    61 1   
    62    24    62 1   
    63    24    63 1   
    64    24    64 1   
@<TRIPOS>SUBSTRUCTURE
     1 2HD         1 TEMP              0 ****  ****    0 ROOT
