@<TRIPOS>MOLECULE
2HD
   65    64     1     0     0
SMALL
No Charge or Current Charge


@<TRIPOS>ATOM
      1 O20          5.7300    26.0610     9.6280 o          1 2HD      -0.526000
      2 P9           4.7420    27.1030     9.2200 p5         1 2HD       1.148800
      3 C8           4.9800    28.7130    10.0920 c3         1 2HD      -0.459400
      4 C7           4.5180    28.7480    11.5700 c3         1 2HD      -0.046400
      5 C6           4.8590    30.0780    12.2730 c3         1 2HD      -0.071400
      6 C5           4.3520    30.1300    13.7310 c3         1 2HD      -0.076400
      7 C4           4.7070    31.4500    14.4500 c3         1 2HD      -0.074400
      8 C3           4.1930    31.4980    15.9060 c3         1 2HD      -0.076400
      9 C2           4.5450    32.8160    16.6280 c3         1 2HD      -0.075400
     10 C1           4.0330    32.8640    18.0810 c3         1 2HD      -0.088100
     11 O10          3.2030    26.7530     9.5810 os         1 2HD      -0.598400
     12 C11          2.1320    27.5350     9.0170 c3         1 2HD       0.186600
     13 C12          0.7540    26.8460     9.2640 c3         1 2HD       0.175300
     14 O21          0.2990    27.0340    10.6390 os         1 2HD      -0.472000
     15 C22          1.0560    26.4130    11.7000 c3         1 2HD       0.154600
     16 C23          0.3530    26.7560    13.0290 c3         1 2HD      -0.082400
     17 C24          1.0500    26.1690    14.2790 c3         1 2HD      -0.073400
     18 C25          2.4460    26.7640    14.5640 c3         1 2HD      -0.095100
     19 C13          0.7170    25.3420     8.8810 c3         1 2HD       0.133600
     20 O14          0.8330    25.2370     7.4430 os         1 2HD      -0.476000
     21 C15          0.8590    23.8990     6.9020 c3         1 2HD       0.161600
     22 C16          2.2090    23.2130     7.2300 c3         1 2HD      -0.111400
     23 C17          3.4480    23.9840     6.7180 c3         1 2HD      -0.069400
     24 C18          4.7780    23.2850     7.0580 c3         1 2HD      -0.098100
     25 H2           6.0530    28.9280    10.0260 hc         1 2HD       0.074200
     26 H3           4.4520    29.4740     9.5080 hc         1 2HD       0.074200
     27 H4           3.4330    28.5950    11.6170 hc         1 2HD       0.050200
     28 H5           4.9830    27.9200    12.1200 hc         1 2HD       0.050200
     29 H6           5.9470    30.2230    12.2620 hc         1 2HD       0.039200
     30 H7           4.4180    30.9090    11.7080 hc         1 2HD       0.039200
     31 H8           3.2630    30.0020    13.7350 hc         1 2HD       0.039200
     32 H9           4.7780    29.2890    14.2910 hc         1 2HD       0.039200
     33 H10          5.7960    31.5800    14.4480 hc         1 2HD       0.037200
     34 H11          4.2810    32.2910    13.8900 hc         1 2HD       0.037200
     35 H12          3.1040    31.3660    15.9080 hc         1 2HD       0.037700
     36 H13          4.6180    30.6550    16.4660 hc         1 2HD       0.037700
     37 H14          5.6340    32.9500    16.6300 hc         1 2HD       0.036200
     38 H15          4.1200    33.6610    16.0720 hc         1 2HD       0.036200
     39 H16          4.3060    33.8160    18.5510 hc         1 2HD       0.032033
     40 H17          2.9410    32.7680    18.1100 hc         1 2HD       0.032033
     41 H18          4.4690    32.0510    18.6730 hc         1 2HD       0.032033
     42 H19          2.1100    28.5420     9.4540 h1         1 2HD       0.046700
     43 H20          2.2730    27.6460     7.9330 h1         1 2HD       0.046700
     44 H21          0.0370    27.3520     8.6040 h1         1 2HD       0.085700
     45 H22          1.0920    25.3220    11.5810 h1         1 2HD       0.037700
     46 H23          2.0810    26.7950    11.7340 h1         1 2HD       0.037700
     47 H24          0.2860    27.8460    13.1320 hc         1 2HD       0.048700
     48 H25         -0.6750    26.3760    12.9900 hc         1 2HD       0.048700
     49 H26          0.4110    26.3480    15.1520 hc         1 2HD       0.039700
     50 H27          1.1360    25.0800    14.1720 hc         1 2HD       0.039700
     51 H28          2.8550    26.3460    15.4920 hc         1 2HD       0.035367
     52 H29          3.1490    26.5390    13.7540 hc         1 2HD       0.035367
     53 H30          2.3850    27.8530    14.6810 hc         1 2HD       0.035367
     54 H31         -0.2320    24.9070     9.2180 h1         1 2HD       0.045700
     55 H32          1.5350    24.8160     9.3870 h1         1 2HD       0.045700
     56 H33          0.0300    23.2990     7.3030 h1         1 2HD       0.045700
     57 H34          0.7410    23.9380     5.8120 h1         1 2HD       0.045700
     58 H35          2.2020    22.2160     6.7720 hc         1 2HD       0.050200
     59 H36          2.2950    23.0470     8.3100 hc         1 2HD       0.050200
     60 H37          3.4610    24.9920     7.1500 hc         1 2HD       0.034700
     61 H38          3.3760    24.1060     5.6300 hc         1 2HD       0.034700
     62 H39          5.6250    23.8660     6.6740 hc         1 2HD       0.037033
     63 H40          4.8960    23.1840     8.1440 hc         1 2HD       0.037033
     64 H41          4.8170    22.2840     6.6110 hc         1 2HD       0.037033
     65 H1           4.7070    27.4210     7.8390 hp         1 2HD      -0.114400
@<TRIPOS>BOND
     1     1     2 2   
     2     2     3 1   
     3     2    11 1   
     4     2    65 1   
     5     3     4 1   
     6     3    25 1   
     7     3    26 1   
     8     4     5 1   
     9     4    27 1   
    10     4    28 1   
    11     5     6 1   
    12     5    29 1   
    13     5    30 1   
    14     6     7 1   
    15     6    31 1   
    16     6    32 1   
    17     7     8 1   
    18     7    33 1   
    19     7    34 1   
    20     8     9 1   
    21     8    35 1   
    22     8    36 1   
    23     9    10 1   
    24     9    37 1   
    25     9    38 1   
    26    10    39 1   
    27    10    40 1   
    28    10    41 1   
    29    11    12 1   
    30    12    13 1   
    31    12    42 1   
    32    12    43 1   
    33    13    14 1   
    34    13    19 1   
    35    13    44 1   
    36    14    15 1   
    37    15    16 1   
    38    15    45 1   
    39    15    46 1   
    40    16    17 1   
    41    16    47 1   
    42    16    48 1   
    43    17    18 1   
    44    17    49 1   
    45    17    50 1   
    46    18    51 1   
    47    18    52 1   
    48    18    53 1   
    49    19    20 1   
    50    19    54 1   
    51    19    55 1   
    52    20    21 1   
    53    21    22 1   
    54    21    56 1   
    55    21    57 1   
    56    22    23 1   
    57    22    58 1   
    58    22    59 1   
    59    23    24 1   
    60    23    60 1   
    61    23    61 1   
    62    24    62 1   
    63    24    63 1   
    64    24    64 1   
@<TRIPOS>SUBSTRUCTURE
     1 2HD         1 TEMP              0 ****  ****    0 ROOT
