@<TRIPOS>MOLECULE
2HF
   20    20     1     0     0
SMALL
bcc


@<TRIPOS>ATOM
      1 C          -52.7230    11.2710    -0.5900 c          1 2HF       0.934600
      2 N          -54.1600    10.9660     1.4150 n8         1 2HF      -0.904800
      3 O          -51.9720    12.0360    -1.2220 o          1 2HF      -0.797300
      4 F1         -56.3250    16.0180     2.8010 f          1 2HF      -0.044900
      5 CA         -53.6520    11.9370     0.4660 c3         1 2HF       0.013500
      6 CB         -52.9110    13.0570     1.2080 c3         1 2HF      -0.021100
      7 CG         -53.7860    13.7710     2.1670 cc         1 2HF       0.019400
      8 ND1        -54.7370    14.6970     1.7610 na         1 2HF      -0.158100
      9 CD2        -53.9150    13.6770     3.5100 cd         1 2HF      -0.148300
     10 CE1        -55.3860    15.1320     2.8190 cc         1 2HF       0.206300
     11 NE2        -54.9220    14.5420     3.8950 na         1 2HF      -0.149100
     12 OXT        -52.8420    10.0400    -0.7360 o          1 2HF      -0.797300
     13 H          -55.0860    11.2210     1.7280 hn         1 2HF       0.344300
     14 H2         -54.2410    10.0790     0.9340 hn         1 2HF       0.344300
     15 HA         -54.4590    12.4090    -0.1210 h1         1 2HF      -0.002300
     16 HB         -52.0780    12.6300     1.7680 hc         1 2HF       0.099700
     17 HBA        -52.4950    13.7680     0.4930 hc         1 2HF       0.099700
     18 HND1       -54.9090    15.0000     0.8080 hn         1 2HF       0.370700
     19 HD2        -53.3800    13.0780     4.2250 h4         1 2HF       0.231000
     20 HE2        -55.2510    14.7010     4.8400 hn         1 2HF       0.357700
@<TRIPOS>BOND
     1     1     3 1   
     2     1     5 1   
     3     1    12 1   
     4     2     5 1   
     5     2    13 1   
     6     2    14 1   
     7     4    10 1   
     8     5     6 1   
     9     5    15 1   
    10     6     7 1   
    11     6    16 1   
    12     6    17 1   
    13     7     8 1   
    14     7     9 2   
    15     8    10 2   
    16     8    18 1   
    17     9    11 1   
    18     9    19 1   
    19    10    11 1   
    20    11    20 1   
@<TRIPOS>SUBSTRUCTURE
     1 2HF         1 TEMP              0 ****  ****    0 ROOT
