@<TRIPOS>MOLECULE
2HG
   16    15     1     0     0
SMALL
No Charge or Current Charge


@<TRIPOS>ATOM
      1 C1          -2.3580    -0.3530     0.2580 c          1 2HG       0.689000
      2 O1          -3.0800    -0.2370    -0.7260 o          1 2HG      -0.747000
      3 C2          -1.1090     0.6030     0.3660 c3         1 2HG       0.022300
      4 O2          -2.6310    -1.0760     1.2060 o          1 2HG      -0.747000
      5 C3           0.1960    -0.1460    -0.0210 c3         1 2HG      -0.050400
      6 O3          -1.2640     1.7870    -0.4610 oh         1 2HG      -0.717000
      7 C4           1.5030     0.6340     0.2880 c3         1 2HG      -0.192400
      8 O4           3.1800    -0.1800    -1.1880 o          1 2HG      -0.769500
      9 C5           2.7300    -0.2320    -0.0530 c          1 2HG       0.711000
     10 O5           3.1740    -0.9730     0.8110 o          1 2HG      -0.769500
     11 H2          -1.0270     0.9050     1.4200 h1         1 2HG       0.011700
     12 H3           0.2240    -1.0960     0.5280 hc         1 2HG       0.040200
     13 H3A          0.1650    -0.4050    -1.0860 hc         1 2HG       0.040200
     14 HO3         -2.0100     1.5670    -1.0700 ho         1 2HG       0.456000
     15 H4           1.4810     1.5310    -0.3440 hc         1 2HG       0.011700
     16 H4A          1.4740     0.8520     1.3630 hc         1 2HG       0.011700
@<TRIPOS>BOND
     1     1     2 1   
     2     1     3 1   
     3     1     4 1   
     4     3     5 1   
     5     3     6 1   
     6     3    11 1   
     7     5     7 1   
     8     5    12 1   
     9     5    13 1   
    10     6    14 1   
    11     7     9 1   
    12     7    15 1   
    13     7    16 1   
    14     8     9 1   
    15     9    10 1   
@<TRIPOS>SUBSTRUCTURE
     1 2HG         1 TEMP              0 ****  ****    0 ROOT
