@<TRIPOS>MOLECULE
2HG
   16    15     1     0     0
SMALL
bcc


@<TRIPOS>ATOM
      1 C1          -2.3720    -0.2520    -0.0200 c          1 2HG       0.899600
      2 O1          -3.1420     0.3560    -0.8000 o          1 2HG      -0.852300
      3 C2          -1.1010     0.5300     0.3770 c3         1 2HG      -0.000900
      4 O2          -2.5250    -1.3910     0.4490 o          1 2HG      -0.852300
      5 C3           0.1620    -0.2120    -0.0510 c3         1 2HG      -0.050400
      6 O3          -1.1620     1.8200    -0.1870 oh         1 2HG      -0.654800
      7 C4           1.4390     0.4910     0.3790 c3         1 2HG      -0.192400
      8 O4           2.6880    -1.2420    -0.7000 o          1 2HG      -0.874800
      9 C5           2.7540    -0.2090    -0.0040 c          1 2HG       0.921600
     10 O5           3.8020     0.3270     0.4180 o          1 2HG      -0.874800
     11 H2          -1.0910     0.6120     1.4760 h1         1 2HG       0.011700
     12 H3           0.1300    -1.2160     0.3760 hc         1 2HG       0.040200
     13 H3A          0.1520    -0.3390    -1.1390 hc         1 2HG       0.040200
     14 HO3         -1.9830     1.7680    -0.7120 ho         1 2HG       0.417000
     15 H4           1.4630     1.5050    -0.0350 hc         1 2HG       0.011700
     16 H4A          1.4320     0.6320     1.4660 hc         1 2HG       0.011700
@<TRIPOS>BOND
     1     1     2 1   
     2     1     3 1   
     3     1     4 1   
     4     3     5 1   
     5     3     6 1   
     6     3    11 1   
     7     5     7 1   
     8     5    12 1   
     9     5    13 1   
    10     6    14 1   
    11     7     9 1   
    12     7    15 1   
    13     7    16 1   
    14     8     9 1   
    15     9    10 1   
@<TRIPOS>SUBSTRUCTURE
     1 2HG         1 TEMP              0 ****  ****    0 ROOT
