@<TRIPOS>MOLECULE
2HH
   25    26     1     0     0
SMALL
abcg2


@<TRIPOS>ATOM
      1 C1           3.1470    -1.9580    -0.3510 c3         1 2HH       0.069900
      2 N2           2.9940    -0.5440    -0.0730 na         1 2HH       0.178800
      3 C3           1.8630     0.1690     0.1440 cc         1 2HH      -0.232600
      4 C4           2.2560     1.4780     0.3480 cd         1 2HH      -0.197000
      5 C5           3.6460     1.4450     0.2320 cd         1 2HH       0.233900
      6 N6           4.0710     0.2200    -0.0290 nc         1 2HH      -0.506800
      7 C7           0.5210    -0.4440     0.2010 c          1 2HH       0.650700
      8 O8           0.3550    -1.6250     0.4450 o          1 2HH      -0.578100
      9 N9          -0.4830     0.4390    -0.0300 ns         1 2HH      -0.132000
     10 C10         -1.8610     0.2290     0.0280 ca         1 2HH      -0.075000
     11 C11         -2.6860     1.3100    -0.2830 ca         1 2HH      -0.133000
     12 C12         -4.0560     1.1550    -0.2340 ca         1 2HH      -0.135000
     13 C13         -4.5710    -0.0830     0.1260 ca         1 2HH       0.312900
     14 N14         -3.7970    -1.1160     0.4210 nb         1 2HH      -0.647000
     15 C15         -2.4770    -0.9770     0.3770 ca         1 2HH       0.322900
     16 H1           2.9250    -2.5560     0.5280 h1         1 2HH       0.068033
     17 H2           2.4970    -2.2650    -1.1660 h1         1 2HH       0.068033
     18 H3           4.1800    -2.1170    -0.6430 h1         1 2HH       0.068033
     19 H4           1.6360     2.3300     0.5770 ha         1 2HH       0.144000
     20 H5           4.3480     2.2580     0.3290 h4         1 2HH       0.043100
     21 H6          -0.2130     1.3690    -0.3120 hn         1 2HH       0.160000
     22 H7          -2.2530     2.2630    -0.5620 ha         1 2HH       0.115000
     23 H8          -4.7140     1.9790    -0.4720 ha         1 2HH       0.125000
     24 H9          -5.6420    -0.2420     0.1740 h4         1 2HH       0.023100
     25 H10         -1.8960    -1.8510     0.6270 h4         1 2HH       0.052100
@<TRIPOS>BOND
     1     1     2 1   
     2     1    16 1   
     3     1    17 1   
     4     1    18 1   
     5     2     3 1   
     6     2     6 1   
     7     3     4 2   
     8     3     7 1   
     9     4     5 1   
    10     4    19 1   
    11     5     6 2   
    12     5    20 1   
    13     7     8 2   
    14     7     9 1   
    15     9    10 1   
    16     9    21 1   
    17    10    11 ar  
    18    10    15 ar  
    19    11    12 ar  
    20    11    22 1   
    21    12    13 ar  
    22    12    23 1   
    23    13    14 ar  
    24    13    24 1   
    25    14    15 ar  
    26    15    25 1   
@<TRIPOS>SUBSTRUCTURE
     1 2HH         1 TEMP              0 ****  ****    0 ROOT
