@<TRIPOS>MOLECULE
2HH
   25    26     1     0     0
SMALL
No Charge or Current Charge


@<TRIPOS>ATOM
      1 C1           3.4030    -2.0080    -0.0250 c3         1 2HH       0.069900
      2 N2           3.1280    -0.5620    -0.0250 na         1 2HH       0.178800
      3 C3           1.8730     0.0490    -0.0090 cc         1 2HH      -0.232600
      4 C4           2.1770     1.3890    -0.0170 cd         1 2HH      -0.197000
      5 C5           3.5800     1.5050    -0.0360 cd         1 2HH       0.233900
      6 N6           4.1820     0.3330    -0.0410 nc         1 2HH      -0.506800
      7 C7           0.5180    -0.5580     0.0100 c          1 2HH       0.650700
      8 O8           0.3350    -1.7690     0.0160 o          1 2HH      -0.578100
      9 N9          -0.5090     0.3770     0.0220 ns         1 2HH      -0.132000
     10 C10         -1.9260     0.2350     0.0410 ca         1 2HH      -0.075000
     11 C11         -2.7070     1.4060     0.0510 ca         1 2HH      -0.133000
     12 C12         -4.1070     1.2830     0.0700 ca         1 2HH      -0.135000
     13 C13         -4.6840     0.0020     0.0790 ca         1 2HH       0.312900
     14 N14         -3.9480    -1.1340     0.0700 nb         1 2HH      -0.647000
     15 C15         -2.5970    -1.0160     0.0520 ca         1 2HH       0.322900
     16 H1           2.9740    -2.4600     0.8760 h1         1 2HH       0.068033
     17 H2           2.9510    -2.4650    -0.9130 h1         1 2HH       0.068033
     18 H3           4.4850    -2.1870    -0.0390 h1         1 2HH       0.068033
     19 H4           1.4850     2.2250    -0.0100 ha         1 2HH       0.144000
     20 H5           4.1740     2.4110    -0.0460 h4         1 2HH       0.043100
     21 H6          -0.1910     1.3360     0.0160 hn         1 2HH       0.160000
     22 H7          -2.2430     2.3900     0.0430 ha         1 2HH       0.115000
     23 H8          -4.7420     2.1640     0.0770 ha         1 2HH       0.125000
     24 H9          -5.7660    -0.1200     0.0940 h4         1 2HH       0.023100
     25 H10         -2.0560    -1.9590     0.0460 h4         1 2HH       0.052100
@<TRIPOS>BOND
     1     1     2 1   
     2     1    16 1   
     3     1    17 1   
     4     1    18 1   
     5     2     3 1   
     6     2     6 1   
     7     3     4 2   
     8     3     7 1   
     9     4     5 1   
    10     4    19 1   
    11     5     6 2   
    12     5    20 1   
    13     7     8 2   
    14     7     9 1   
    15     9    10 1   
    16     9    21 1   
    17    10    11 ar  
    18    10    15 ar  
    19    11    12 ar  
    20    11    22 1   
    21    12    13 ar  
    22    12    23 1   
    23    13    14 ar  
    24    13    24 1   
    25    14    15 ar  
    26    15    25 1   
@<TRIPOS>SUBSTRUCTURE
     1 2HH         1 TEMP              0 ****  ****    0 ROOT
