@<TRIPOS>MOLECULE
2HI
   32    34     1     0     0
SMALL
No Charge or Current Charge


@<TRIPOS>ATOM
      1 C1           3.6130     0.8100    -1.2370 ca         1 2HI      -0.258000
      2 C2           2.5110     0.0180    -1.6040 ca         1 2HI       0.024000
      3 C3           1.5940    -0.4100    -0.6210 ca         1 2HI      -0.288600
      4 C4           1.8010    -0.0490     0.7210 ca         1 2HI       0.220100
      5 C5           2.8900     0.7540     1.0780 ca         1 2HI      -0.206000
      6 C6           3.7970     1.1790     0.1020 ca         1 2HI       0.201100
      7 O1           0.9270    -0.4460     1.7040 os         1 2HI      -0.370100
      8 C7           0.3880    -1.2180    -0.9920 c          1 2HI       0.616700
      9 O2           0.2030    -1.6040    -2.1410 o          1 2HI      -0.518100
     10 C8          -0.6210    -1.5260     0.1150 c6         1 2HI      -0.134400
     11 C9           0.0740    -1.5760     1.4850 c6         1 2HI       0.398300
     12 O3           0.8990    -2.7320     1.5690 oh         1 2HI      -0.660000
     13 C10         -1.7940    -0.5230     0.0750 ca         1 2HI      -0.118300
     14 C11         -3.1160    -1.0020    -0.0420 ca         1 2HI      -0.054000
     15 C12         -4.1980    -0.1050    -0.0800 ca         1 2HI      -0.176500
     16 C13         -3.9690     1.2760    -0.0040 ca         1 2HI       0.148100
     17 C14         -2.6600     1.7620     0.1120 ca         1 2HI      -0.176500
     18 C15         -1.5750     0.8700     0.1510 ca         1 2HI      -0.054000
     19 O4          -5.0130     2.1510    -0.0410 oh         1 2HI      -0.531100
     20 O5           4.8580     1.9520     0.4570 oh         1 2HI      -0.525100
     21 H1           4.3130     1.1370    -2.0020 ha         1 2HI       0.121000
     22 H2           2.3700    -0.2520    -2.6500 ha         1 2HI       0.134000
     23 H5           3.0340     1.0400     2.1150 ha         1 2HI       0.145000
     24 H8          -1.0270    -2.5180    -0.1210 hc         1 2HI       0.097700
     25 H9          -0.6900    -1.6130     2.2790 h2         1 2HI       0.080700
     26 HO3          1.4130    -2.6160     2.3960 ho         1 2HI       0.464000
     27 H11         -3.3100    -2.0710    -0.1020 ha         1 2HI       0.118500
     28 H12         -5.2100    -0.4930    -0.1700 ha         1 2HI       0.123000
     29 H14         -2.4830     2.8330     0.1710 ha         1 2HI       0.123000
     30 H15         -0.5690     1.2720     0.2400 ha         1 2HI       0.118500
     31 HO4         -5.8450     1.6380    -0.1240 ho         1 2HI       0.466000
     32 HO5          5.3760     2.1480    -0.3530 ho         1 2HI       0.473000
@<TRIPOS>BOND
     1     1     2 ar  
     2     1     6 ar  
     3     1    21 1   
     4     2     3 ar  
     5     2    22 1   
     6     3     4 ar  
     7     3     8 1   
     8     4     5 ar  
     9     4     7 1   
    10     5     6 ar  
    11     5    23 1   
    12     6    20 1   
    13     7    11 1   
    14     8     9 2   
    15     8    10 1   
    16    10    11 1   
    17    10    13 1   
    18    10    24 1   
    19    11    12 1   
    20    11    25 1   
    21    12    26 1   
    22    13    14 ar  
    23    13    18 ar  
    24    14    15 ar  
    25    14    27 1   
    26    15    16 ar  
    27    15    28 1   
    28    16    17 ar  
    29    16    19 1   
    30    17    18 ar  
    31    17    29 1   
    32    18    30 1   
    33    19    31 1   
    34    20    32 1   
@<TRIPOS>SUBSTRUCTURE
     1 2HI         1 TEMP              0 ****  ****    0 ROOT
