@<TRIPOS>MOLECULE
2HI
   32    34     1     0     0
SMALL
bcc


@<TRIPOS>ATOM
      1 C1           3.5390     0.8350    -1.1810 ca         1 2HI      -0.276000
      2 C2           2.5110     0.0020    -1.5550 ca         1 2HI       0.006000
      3 C3           1.5650    -0.4540    -0.6310 ca         1 2HI      -0.288600
      4 C4           1.6960    -0.0540     0.7080 ca         1 2HI       0.220100
      5 C5           2.7260     0.7840     1.1030 ca         1 2HI      -0.224000
      6 C6           3.6410     1.2370     0.1580 ca         1 2HI       0.201100
      7 O1           0.8230    -0.4400     1.6570 os         1 2HI      -0.346900
      8 C7           0.4320    -1.2780    -1.0450 c          1 2HI       0.616700
      9 O2           0.2800    -1.6810    -2.1810 o          1 2HI      -0.518100
     10 C8          -0.5990    -1.5540     0.0350 c6         1 2HI      -0.134400
     11 C9           0.0830    -1.6270     1.3960 c6         1 2HI       0.351900
     12 O3           0.9150    -2.7300     1.3870 oh         1 2HI      -0.597800
     13 C10         -1.7150    -0.5320     0.0060 ca         1 2HI      -0.118300
     14 C11         -3.0310    -0.9660     0.1320 ca         1 2HI      -0.072000
     15 C12         -4.0940    -0.0760     0.1440 ca         1 2HI      -0.194500
     16 C13         -3.8550     1.2890     0.0220 ca         1 2HI       0.148100
     17 C14         -2.5440     1.7410    -0.1130 ca         1 2HI      -0.194500
     18 C15         -1.4940     0.8390    -0.1180 ca         1 2HI      -0.072000
     19 O4          -4.8410     2.2070     0.0240 oh         1 2HI      -0.492100
     20 O5           4.6090     2.0530     0.5840 oh         1 2HI      -0.486100
     21 H1           4.2560     1.1830    -1.9150 ha         1 2HI       0.139000
     22 H2           2.4210    -0.3010    -2.5900 ha         1 2HI       0.152000
     23 H5           2.8160     1.0850     2.1390 ha         1 2HI       0.163000
     24 H8          -1.0360    -2.5360    -0.1630 hc         1 2HI       0.097700
     25 H9          -0.6550    -1.6630     2.2010 h2         1 2HI       0.080700
     26 HO3          1.2200    -2.9110     2.2840 ho         1 2HI       0.425000
     27 H11         -3.2370    -2.0260     0.2290 ha         1 2HI       0.136500
     28 H12         -5.1060    -0.4500     0.2470 ha         1 2HI       0.141000
     29 H14         -2.3500     2.8010    -0.2150 ha         1 2HI       0.141000
     30 H15         -0.4920     1.2330    -0.2340 ha         1 2HI       0.136500
     31 HO4         -5.6990     1.7790     0.1140 ho         1 2HI       0.427000
     32 HO5          5.1950     2.3000    -0.1420 ho         1 2HI       0.434000
@<TRIPOS>BOND
     1     1     2 ar  
     2     1     6 ar  
     3     1    21 1   
     4     2     3 ar  
     5     2    22 1   
     6     3     4 ar  
     7     3     8 1   
     8     4     5 ar  
     9     4     7 1   
    10     5     6 ar  
    11     5    23 1   
    12     6    20 1   
    13     7    11 1   
    14     8     9 2   
    15     8    10 1   
    16    10    11 1   
    17    10    13 1   
    18    10    24 1   
    19    11    12 1   
    20    11    25 1   
    21    12    26 1   
    22    13    14 ar  
    23    13    18 ar  
    24    14    15 ar  
    25    14    27 1   
    26    15    16 ar  
    27    15    28 1   
    28    16    17 ar  
    29    16    19 1   
    30    17    18 ar  
    31    17    29 1   
    32    18    30 1   
    33    19    31 1   
    34    20    32 1   
@<TRIPOS>SUBSTRUCTURE
     1 2HI         1 TEMP              0 ****  ****    0 ROOT
