@<TRIPOS>MOLECULE
2HJ
   55    57     1     0     0
SMALL
bcc


@<TRIPOS>ATOM
      1 C1          -5.9810     3.5820     0.7610 c3         1 2HJ      -0.084100
      2 C2          -6.7070     2.4250     0.0620 c3         1 2HJ      -0.009700
      3 C3          -7.9720     2.0590     0.8510 c3         1 2HJ      -0.084100
      4 C4          -7.1230     2.8930    -1.3320 c3         1 2HJ      -0.084100
      5 C5          -5.7900     1.2100     0.0150 ca         1 2HJ      -0.005300
      6 C6          -5.4380     0.5760    -1.1750 ca         1 2HJ      -0.149000
      7 C7          -4.6130    -0.5390    -1.1860 ca         1 2HJ      -0.034000
      8 C8          -4.1260    -1.0360     0.0130 ca         1 2HJ      -0.319500
      9 C9          -4.4570    -0.4260     1.2160 ca         1 2HJ      -0.034000
     10 C10         -5.2800     0.6850     1.2050 ca         1 2HJ      -0.149000
     11 S11         -3.0300    -2.4240     0.0020 sy         1 2HJ       1.290200
     12 O12         -3.0240    -2.9930     1.3390 o          1 2HJ      -0.601300
     13 O13         -3.3430    -3.2570    -1.1480 o          1 2HJ      -0.601300
     14 N14         -1.5140    -1.8350    -0.2760 n7         1 2HJ      -0.807100
     15 C15         -0.9550    -0.8600     0.6550 c3         1 2HJ       0.244100
     16 C16          0.5360    -0.7900     0.4730 ca         1 2HJ      -0.073300
     17 C17          1.1380     0.3840     0.0400 ca         1 2HJ      -0.118000
     18 C18          2.5140     0.4570    -0.1190 ca         1 2HJ      -0.091000
     19 C19          3.3120    -0.6510     0.1500 ca         1 2HJ      -0.149600
     20 C20          2.7040    -1.8380     0.5610 ca         1 2HJ      -0.091000
     21 C21          1.3340    -1.9040     0.7250 ca         1 2HJ      -0.118000
     22 C22          4.7950    -0.6490    -0.0220 c          1 2HJ       0.688700
     23 O23          5.4060    -1.6780    -0.2510 o          1 2HJ      -0.574100
     24 N24          5.3900     0.5650     0.1110 ns         1 2HJ      -0.464100
     25 C25          6.7330     0.8970    -0.0480 ca         1 2HJ      -0.043700
     26 C26          7.7500     0.0250    -0.4320 ca         1 2HJ      -0.116000
     27 C27          9.0350     0.5310    -0.5520 ca         1 2HJ      -0.219300
     28 C28          9.2750     1.8690    -0.2900 ca         1 2HJ       0.370200
     29 N29          8.3090     2.7050     0.0760 nb         1 2HJ      -0.643000
     30 C30          7.0830     2.2320     0.1900 ca         1 2HJ       0.348200
     31 H1          -5.6950     3.3320     1.7830 hc         1 2HJ       0.038478
     32 H2          -5.0760     3.8630     0.2200 hc         1 2HJ       0.038478
     33 H3          -6.6300     4.4590     0.8070 hc         1 2HJ       0.038478
     34 H4          -8.6540     2.9120     0.8830 hc         1 2HJ       0.038478
     35 H5          -8.5010     1.2260     0.3850 hc         1 2HJ       0.038478
     36 H6          -7.7490     1.7790     1.8810 hc         1 2HJ       0.038478
     37 H7          -6.2640     3.1910    -1.9360 hc         1 2HJ       0.038478
     38 H8          -7.6730     2.1250    -1.8790 hc         1 2HJ       0.038478
     39 H9          -7.7770     3.7610    -1.2440 hc         1 2HJ       0.038478
     40 H10         -5.8090     0.9390    -2.1230 ha         1 2HJ       0.138000
     41 H11         -4.3680    -1.0110    -2.1290 ha         1 2HJ       0.152500
     42 H12         -4.0870    -0.8090     2.1580 ha         1 2HJ       0.152500
     43 H13         -5.5310     1.1420     2.1530 ha         1 2HJ       0.138000
     44 H14         -1.3770    -1.5910    -1.2520 hn         1 2HJ       0.427800
     45 H15         -1.3930     0.1330     0.5180 h1         1 2HJ       0.060200
     46 H16         -1.1820    -1.1830     1.6720 h1         1 2HJ       0.060200
     47 H17          0.5290     1.2500    -0.1850 ha         1 2HJ       0.143500
     48 H18          2.9410     1.3820    -0.4860 ha         1 2HJ       0.145000
     49 H19          3.3100    -2.7110     0.7640 ha         1 2HJ       0.145000
     50 H20          0.8790    -2.8290     1.0560 ha         1 2HJ       0.143500
     51 H21          4.8020     1.3300     0.4060 hn         1 2HJ       0.322500
     52 H22          7.5600    -1.0160    -0.6310 ha         1 2HJ       0.171000
     53 H23          9.8480    -0.1190    -0.8470 ha         1 2HJ       0.144000
     54 H24         10.2740     2.2810    -0.3770 h4         1 2HJ       0.022100
     55 H25          6.3130     2.9390     0.4880 h4         1 2HJ       0.011100
@<TRIPOS>BOND
     1     1     2 1   
     2     1    31 1   
     3     1    32 1   
     4     1    33 1   
     5     2     3 1   
     6     2     4 1   
     7     2     5 1   
     8     3    34 1   
     9     3    35 1   
    10     3    36 1   
    11     4    37 1   
    12     4    38 1   
    13     4    39 1   
    14     5     6 ar  
    15     5    10 ar  
    16     6     7 ar  
    17     6    40 1   
    18     7     8 ar  
    19     7    41 1   
    20     8     9 ar  
    21     8    11 1   
    22     9    10 ar  
    23     9    42 1   
    24    10    43 1   
    25    11    12 2   
    26    11    13 2   
    27    11    14 1   
    28    14    15 1   
    29    14    44 1   
    30    15    16 1   
    31    15    45 1   
    32    15    46 1   
    33    16    17 ar  
    34    16    21 ar  
    35    17    18 ar  
    36    17    47 1   
    37    18    19 ar  
    38    18    48 1   
    39    19    20 ar  
    40    19    22 1   
    41    20    21 ar  
    42    20    49 1   
    43    21    50 1   
    44    22    23 2   
    45    22    24 1   
    46    24    25 1   
    47    24    51 1   
    48    25    26 ar  
    49    25    30 ar  
    50    26    27 ar  
    51    26    52 1   
    52    27    28 ar  
    53    27    53 1   
    54    28    29 ar  
    55    28    54 1   
    56    29    30 ar  
    57    30    55 1   
@<TRIPOS>SUBSTRUCTURE
     1 2HJ         1 TEMP              0 ****  ****    0 ROOT
