@<TRIPOS>MOLECULE
2HJ
   55    57     1     0     0
SMALL
No Charge or Current Charge


@<TRIPOS>ATOM
      1 C1          -5.8130     3.0600     1.8770 c3         1 2HJ      -0.084100
      2 C2          -6.5970     2.2330     0.8230 c3         1 2HJ      -0.009700
      3 C3          -7.8870     1.6610     1.4720 c3         1 2HJ      -0.084100
      4 C4          -7.0250     3.1980    -0.3190 c3         1 2HJ      -0.084100
      5 C5          -5.7080     1.0600     0.3280 ca         1 2HJ      -0.005300
      6 C6          -5.3310     0.9020    -1.0300 ca         1 2HJ      -0.131000
      7 C7          -4.5220    -0.1720    -1.4390 ca         1 2HJ      -0.016000
      8 C8          -4.0700    -1.1170    -0.5000 ca         1 2HJ      -0.319500
      9 C9          -4.4340    -0.9770     0.8510 ca         1 2HJ      -0.016000
     10 C10         -5.2430     0.0980     1.2550 ca         1 2HJ      -0.131000
     11 S11         -3.0170    -2.4860    -1.0100 sy         1 2HJ       1.148600
     12 O12         -3.3250    -3.6570    -0.1840 o          1 2HJ      -0.530500
     13 O13         -2.9320    -2.5480    -2.4700 o          1 2HJ      -0.530500
     14 N14         -1.5210    -1.9690    -0.4910 n7         1 2HJ      -0.862300
     15 C15         -1.1520    -0.5700    -0.7530 c3         1 2HJ       0.244100
     16 C16          0.3040    -0.3360    -0.3740 ca         1 2HJ      -0.073300
     17 C17          1.3010    -0.2700    -1.3630 ca         1 2HJ      -0.100000
     18 C18          2.6450    -0.0520    -1.0120 ca         1 2HJ      -0.073000
     19 C19          3.0210     0.1050     0.3460 ca         1 2HJ      -0.149600
     20 C20          2.0090     0.0350     1.3330 ca         1 2HJ      -0.073000
     21 C21          0.6670    -0.1830     0.9760 ca         1 2HJ      -0.100000
     22 C22          4.4610     0.3420     0.7690 c          1 2HJ       0.621700
     23 O23          4.7600     0.4750     1.9520 o          1 2HJ      -0.574100
     24 N24          5.3960     0.3960    -0.2600 ns         1 2HJ      -0.138000
     25 C25          6.8080     0.5970    -0.2690 ca         1 2HJ      -0.071000
     26 C26          7.5850     0.7960     0.8950 ca         1 2HJ      -0.098000
     27 C27          8.9710     0.9820     0.7490 ca         1 2HJ      -0.136000
     28 C28          9.5390     0.9650    -0.5350 ca         1 2HJ       0.304900
     29 N29          8.8080     0.7760    -1.6570 nb         1 2HJ      -0.643000
     30 C30          7.4740     0.5960    -1.5150 ca         1 2HJ       0.282900
     31 H1          -5.5600     2.4590     2.7580 hc         1 2HJ       0.038478
     32 H2          -4.8780     3.4430     1.4510 hc         1 2HJ       0.038478
     33 H3          -6.4040     3.9180     2.2220 hc         1 2HJ       0.038478
     34 H4          -8.5520     2.4680     1.8020 hc         1 2HJ       0.038478
     35 H5          -8.4380     1.0400     0.7550 hc         1 2HJ       0.038478
     36 H6          -7.6600     1.0430     2.3480 hc         1 2HJ       0.038478
     37 H7          -6.1520     3.6570    -0.7980 hc         1 2HJ       0.038478
     38 H8          -7.6090     2.6720    -1.0840 hc         1 2HJ       0.038478
     39 H9          -7.6510     4.0110     0.0700 hc         1 2HJ       0.038478
     40 H10         -5.6530     1.6040    -1.7920 ha         1 2HJ       0.120000
     41 H11         -4.2490    -0.2600    -2.4900 ha         1 2HJ       0.134500
     42 H12         -4.0870    -1.6950     1.5930 ha         1 2HJ       0.134500
     43 H13         -5.5040     0.1780     2.3070 ha         1 2HJ       0.120000
     44 H14         -0.9130    -2.5730    -1.0380 hn         1 2HJ       0.483000
     45 H15         -1.2920    -0.3170    -1.8140 h1         1 2HJ       0.060200
     46 H16         -1.7770     0.1190    -0.1690 h1         1 2HJ       0.060200
     47 H17          1.0370    -0.3880    -2.4120 ha         1 2HJ       0.125500
     48 H18          3.3790    -0.0090    -1.8130 ha         1 2HJ       0.127000
     49 H19          2.2580     0.1490     2.3860 ha         1 2HJ       0.127000
     50 H20         -0.0940    -0.2370     1.7510 ha         1 2HJ       0.125500
     51 H21          4.9990     0.2690    -1.1820 hn         1 2HJ       0.156000
     52 H22          7.1510     0.8100     1.8900 ha         1 2HJ       0.153000
     53 H23          9.6030     1.1380     1.6190 ha         1 2HJ       0.126000
     54 H24         10.6110     1.1070    -0.6700 h4         1 2HJ       0.022100
     55 H25          6.9150     0.4470    -2.4390 h4         1 2HJ       0.011100
@<TRIPOS>BOND
     1     1     2 1   
     2     1    31 1   
     3     1    32 1   
     4     1    33 1   
     5     2     3 1   
     6     2     4 1   
     7     2     5 1   
     8     3    34 1   
     9     3    35 1   
    10     3    36 1   
    11     4    37 1   
    12     4    38 1   
    13     4    39 1   
    14     5     6 ar  
    15     5    10 ar  
    16     6     7 ar  
    17     6    40 1   
    18     7     8 ar  
    19     7    41 1   
    20     8     9 ar  
    21     8    11 1   
    22     9    10 ar  
    23     9    42 1   
    24    10    43 1   
    25    11    12 2   
    26    11    13 2   
    27    11    14 1   
    28    14    15 1   
    29    14    44 1   
    30    15    16 1   
    31    15    45 1   
    32    15    46 1   
    33    16    17 ar  
    34    16    21 ar  
    35    17    18 ar  
    36    17    47 1   
    37    18    19 ar  
    38    18    48 1   
    39    19    20 ar  
    40    19    22 1   
    41    20    21 ar  
    42    20    49 1   
    43    21    50 1   
    44    22    23 2   
    45    22    24 1   
    46    24    25 1   
    47    24    51 1   
    48    25    26 ar  
    49    25    30 ar  
    50    26    27 ar  
    51    26    52 1   
    52    27    28 ar  
    53    27    53 1   
    54    28    29 ar  
    55    28    54 1   
    56    29    30 ar  
    57    30    55 1   
@<TRIPOS>SUBSTRUCTURE
     1 2HJ         1 TEMP              0 ****  ****    0 ROOT
