@<TRIPOS>MOLECULE
2HK
   67    72     1     0     0
SMALL
bcc


@<TRIPOS>ATOM
      1 O3         -11.6370    -0.7630    -0.6830 oh         1 2HK      -0.491100
      2 C28        -10.3240    -0.5340    -0.5000 ca         1 2HK       0.148100
      3 C27         -9.5230    -1.3370     0.3100 ca         1 2HK      -0.196000
      4 C26         -8.1770    -1.0490     0.4580 ca         1 2HK      -0.073500
      5 C29         -9.7530     0.5550    -1.1560 ca         1 2HK      -0.196000
      6 C30         -8.4070     0.8310    -0.9960 ca         1 2HK      -0.073500
      7 C25         -7.5880     0.0390    -0.1880 cp         1 2HK      -0.082000
      8 C22         -6.1540     0.3380    -0.0240 cp         1 2HK      -0.004000
      9 C21         -5.2160    -0.6860     0.1300 ca         1 2HK      -0.124500
     10 C20         -3.8720    -0.4080     0.2910 ca         1 2HK      -0.103000
     11 C23         -5.6860     1.6550    -0.0150 ca         1 2HK      -0.124500
     12 C24         -4.3410     1.9390     0.1380 ca         1 2HK      -0.103000
     13 C19         -3.4090     0.9100     0.2990 ca         1 2HK      -0.042000
     14 C18         -1.9900     1.1620     0.4640 cc         1 2HK       0.054700
     15 N3          -1.5080     2.4010     0.7250 na         1 2HK      -0.189400
     16 N2          -0.1760     2.3590     0.9420 na         1 2HK      -0.179400
     17 C17          0.2460     1.1050     0.6740 cd         1 2HK      -0.032300
     18 C10          1.4070     0.3320     0.5720 ca         1 2HK      -0.141000
     19 C9           2.7840     0.6020     0.7370 ca         1 2HK      -0.151000
     20 C16         -0.8990     0.2930     0.3960 cd         1 2HK      -0.114800
     21 C15         -0.4650    -1.0250     0.1220 cd         1 2HK      -0.231200
     22 C11          0.9370    -0.9890     0.2370 ca         1 2HK       0.027000
     23 C12          1.9050    -2.0170     0.0830 ca         1 2HK      -0.216000
     24 C13          3.2360    -1.7370     0.2480 ca         1 2HK       0.145100
     25 O2           4.2320    -2.6390     0.1280 os         1 2HK      -0.295900
     26 C14          3.8870    -3.9650    -0.2070 c3         1 2HK       0.122700
     27 C8           3.6890    -0.4110     0.5790 ca         1 2HK       0.084100
     28 O1           5.0340    -0.2960     0.7080 os         1 2HK      -0.285900
     29 C1           5.5550     0.9740     1.0240 c3         1 2HK       0.141400
     30 C2           7.0590     0.8630     1.1560 c3         1 2HK       0.171800
     31 N1           7.7290     0.4040    -0.0440 n3         1 2HK      -0.701600
     32 C7           9.0870    -0.0240     0.2530 c6         1 2HK       0.169300
     33 C6           9.7610    -0.6230    -0.9720 c6         1 2HK      -0.075400
     34 C5           9.7600     0.3730    -2.1250 c6         1 2HK      -0.074400
     35 C4           8.3410     0.8600    -2.3810 c6         1 2HK      -0.075400
     36 C3           7.7130     1.3980    -1.1030 c6         1 2HK       0.169300
     37 H29        -11.9180    -1.5390    -0.1850 ho         1 2HK       0.428000
     38 H28         -9.9510    -2.1850     0.8320 ha         1 2HK       0.140500
     39 H27         -7.5840    -1.6780     1.1090 ha         1 2HK       0.134000
     40 H30        -10.3640     1.1770    -1.7970 ha         1 2HK       0.140500
     41 H31         -7.9870     1.6720    -1.5350 ha         1 2HK       0.134000
     42 H24         -5.5350    -1.7200     0.1090 ha         1 2HK       0.136500
     43 H23         -3.1760    -1.2260     0.4170 ha         1 2HK       0.138000
     44 H25         -6.3820     2.4770    -0.1140 ha         1 2HK       0.136500
     45 H26         -4.0290     2.9750     0.1260 ha         1 2HK       0.138000
     46 H32         -2.0270     3.1700     1.1240 hn         1 2HK       0.313700
     47 H22          0.3440     3.2220     0.8880 hn         1 2HK       0.313700
     48 H16          3.1050     1.6050     0.9900 ha         1 2HK       0.120000
     49 H21         -1.0640    -1.8880    -0.1240 ha         1 2HK       0.141000
     50 H17          1.5740    -3.0170    -0.1640 ha         1 2HK       0.133000
     51 H18          3.2380    -4.4220     0.5450 h1         1 2HK       0.036367
     52 H20          3.3880    -4.0240    -1.1790 h1         1 2HK       0.036367
     53 H19          4.8180    -4.5260    -0.2560 h1         1 2HK       0.036367
     54 H2           5.2710     1.7090     0.2610 h1         1 2HK       0.024700
     55 H3           5.1510     1.3390     1.9770 h1         1 2HK       0.024700
     56 H5           7.4310     1.8450     1.4940 h1         1 2HK       0.037200
     57 H4           7.2810     0.1580     1.9620 h1         1 2HK       0.037200
     58 H15          9.7020     0.8130     0.6300 h1         1 2HK       0.025950
     59 H14          9.0460    -0.7670     1.0530 h1         1 2HK       0.025950
     60 H13         10.7790    -0.9200    -0.7130 hc         1 2HK       0.046950
     61 H12          9.2270    -1.5310    -1.2670 hc         1 2HK       0.046950
     62 H11         10.3970     1.2260    -1.8670 hc         1 2HK       0.036200
     63 H10         10.1850    -0.0750    -3.0250 hc         1 2HK       0.036200
     64 H9           8.3280     1.6420    -3.1430 hc         1 2HK       0.046950
     65 H8           7.7290     0.0350    -2.7580 hc         1 2HK       0.046950
     66 H7           6.6830     1.6910    -1.3120 h1         1 2HK       0.025950
     67 H6           8.2450     2.3170    -0.7930 h1         1 2HK       0.025950
@<TRIPOS>BOND
     1     1     2 1   
     2     1    37 1   
     3     2     3 ar  
     4     2     5 ar  
     5     3     4 ar  
     6     3    38 1   
     7     4     7 ar  
     8     4    39 1   
     9     5     6 ar  
    10     5    40 1   
    11     6     7 ar  
    12     6    41 1   
    13     7     8 1   
    14     8     9 ar  
    15     8    11 ar  
    16     9    10 ar  
    17     9    42 1   
    18    10    13 ar  
    19    10    43 1   
    20    11    12 ar  
    21    11    44 1   
    22    12    13 ar  
    23    12    45 1   
    24    13    14 1   
    25    14    15 1   
    26    14    20 2   
    27    15    16 1   
    28    15    46 1   
    29    16    17 1   
    30    16    47 1   
    31    17    18 2   
    32    17    20 1   
    33    18    19 ar  
    34    18    22 ar  
    35    19    27 ar  
    36    19    48 1   
    37    20    21 1   
    38    21    22 2   
    39    21    49 1   
    40    22    23 ar  
    41    23    24 ar  
    42    23    50 1   
    43    24    25 1   
    44    24    27 ar  
    45    25    26 1   
    46    26    51 1   
    47    26    52 1   
    48    26    53 1   
    49    27    28 1   
    50    28    29 1   
    51    29    30 1   
    52    29    54 1   
    53    29    55 1   
    54    30    31 1   
    55    30    56 1   
    56    30    57 1   
    57    31    32 1   
    58    31    36 1   
    59    32    33 1   
    60    32    58 1   
    61    32    59 1   
    62    33    34 1   
    63    33    60 1   
    64    33    61 1   
    65    34    35 1   
    66    34    62 1   
    67    34    63 1   
    68    35    36 1   
    69    35    64 1   
    70    35    65 1   
    71    36    66 1   
    72    36    67 1   
@<TRIPOS>SUBSTRUCTURE
     1 2HK         1 TEMP              0 ****  ****    0 ROOT
