@<TRIPOS>MOLECULE
2HK
   67    72     1     0     0
SMALL
No Charge or Current Charge


@<TRIPOS>ATOM
      1 O3         -11.5060    -1.0050    -1.2090 oh         1 2HK      -0.530100
      2 C28        -10.2130    -0.6920    -0.9160 ca         1 2HK       0.148100
      3 C27         -9.5800    -1.2630     0.1980 ca         1 2HK      -0.178000
      4 C26         -8.2450    -0.9350     0.4930 ca         1 2HK      -0.055500
      5 C29         -9.5140     0.2050    -1.7330 ca         1 2HK      -0.178000
      6 C30         -8.1800     0.5360    -1.4400 ca         1 2HK      -0.055500
      7 C25         -7.5160    -0.0280    -0.3190 cp         1 2HK      -0.082000
      8 C22         -6.0940     0.3230    -0.0050 cp         1 2HK      -0.004000
      9 C21         -5.2060    -0.6340     0.5460 ca         1 2HK      -0.106500
     10 C20         -3.8710    -0.3050     0.8390 ca         1 2HK      -0.085000
     11 C23         -5.5900     1.6250    -0.2430 ca         1 2HK      -0.106500
     12 C24         -4.2560     1.9550     0.0530 ca         1 2HK      -0.085000
     13 C19         -3.3800     0.9910     0.5870 ca         1 2HK      -0.042000
     14 C18         -1.9950     1.3540     0.8960 cc         1 2HK       0.004000
     15 N3          -1.4420     2.6200     1.1970 na         1 2HK      -0.189000
     16 N2          -0.0260     2.5370     1.3490 na         1 2HK      -0.179000
     17 C17          0.2490     1.2120     1.1340 cd         1 2HK      -0.083000
     18 C10          1.3920     0.3480     0.9100 ca         1 2HK      -0.141000
     19 C9           2.7650     0.5800     1.0230 ca         1 2HK      -0.133000
     20 C16         -0.9040     0.5340     0.8400 cd         1 2HK      -0.114800
     21 C15         -0.6010    -0.8080     0.4580 cd         1 2HK      -0.281200
     22 C11          0.8720    -0.8910     0.5170 ca         1 2HK       0.027000
     23 C12          1.7150    -1.9630     0.2170 ca         1 2HK      -0.198000
     24 C13          3.1180    -1.7650     0.3270 ca         1 2HK       0.145100
     25 O2           4.0120    -2.7870     0.0480 os         1 2HK      -0.319100
     26 C14          3.5830    -4.0960    -0.3650 c3         1 2HK       0.145900
     27 C8           3.6430    -0.4980     0.7280 ca         1 2HK       0.084100
     28 O1           5.0180    -0.3530     0.8180 os         1 2HK      -0.309100
     29 C1           5.6390     0.8880     1.2090 c3         1 2HK       0.164600
     30 C2           7.1830     0.7100     1.2030 c3         1 2HK       0.171800
     31 N1           7.8110     0.3310    -0.0980 n3         1 2HK      -0.701600
     32 C7           9.2580     0.0140     0.0590 c6         1 2HK       0.169300
     33 C6           9.8800    -0.5060    -1.2600 c6         1 2HK      -0.075400
     34 C5           9.6680     0.5060    -2.4090 c6         1 2HK      -0.074400
     35 C4           8.1690     0.8580    -2.5340 c6         1 2HK      -0.075400
     36 C3           7.5910     1.3360    -1.1790 c6         1 2HK       0.169300
     37 H29        -11.8310    -1.6410    -0.5370 ho         1 2HK       0.467000
     38 H28        -10.1150    -1.9580     0.8410 ha         1 2HK       0.122500
     39 H27         -7.7760    -1.3770     1.3690 ha         1 2HK       0.116000
     40 H30        -10.0040     0.6450    -2.5990 ha         1 2HK       0.122500
     41 H31         -7.6520     1.2240    -2.0950 ha         1 2HK       0.116000
     42 H24         -5.5510    -1.6460     0.7400 ha         1 2HK       0.118500
     43 H23         -3.2270    -1.0590     1.2810 ha         1 2HK       0.120000
     44 H25         -6.2420     2.3940    -0.6490 ha         1 2HK       0.118500
     45 H26         -3.9030     2.9640    -0.1440 ha         1 2HK       0.120000
     46 H32         -1.9100     3.4870     1.4420 hn         1 2HK       0.364000
     47 H22          0.5570     3.3530     1.1800 hn         1 2HK       0.364000
     48 H16          3.1230     1.5580     1.3310 ha         1 2HK       0.102000
     49 H21         -1.2890    -1.5720     0.1070 ha         1 2HK       0.191000
     50 H17          1.2830    -2.9100    -0.0920 ha         1 2HK       0.115000
     51 H18          2.9540    -4.5610     0.4030 h1         1 2HK       0.036367
     52 H20          3.0160    -4.0420    -1.3030 h1         1 2HK       0.036367
     53 H19          4.4530    -4.7440    -0.5310 h1         1 2HK       0.036367
     54 H2           5.3550     1.6990     0.5270 h1         1 2HK       0.024700
     55 H3           5.3220     1.1690     2.2210 h1         1 2HK       0.024700
     56 H5           7.6280     1.6480     1.5620 h1         1 2HK       0.037200
     57 H4           7.4220    -0.0540     1.9560 h1         1 2HK       0.037200
     58 H15          9.8080     0.9080     0.3860 h1         1 2HK       0.025950
     59 H14          9.3960    -0.7530     0.8360 h1         1 2HK       0.025950
     60 H13         10.9520    -0.6950    -1.1180 hc         1 2HK       0.046950
     61 H12          9.4240    -1.4700    -1.5250 hc         1 2HK       0.046950
     62 H11         10.2490     1.4180    -2.2120 hc         1 2HK       0.036200
     63 H10         10.0410     0.0900    -3.3550 hc         1 2HK       0.036200
     64 H9           8.0280     1.6380    -3.2940 hc         1 2HK       0.046950
     65 H8           7.6090    -0.0220    -2.8790 hc         1 2HK       0.046950
     66 H7           6.5180     1.5290    -1.3180 h1         1 2HK       0.025950
     67 H6           8.0600     2.2940    -0.9060 h1         1 2HK       0.025950
@<TRIPOS>BOND
     1     1     2 1   
     2     1    37 1   
     3     2     3 ar  
     4     2     5 ar  
     5     3     4 ar  
     6     3    38 1   
     7     4     7 ar  
     8     4    39 1   
     9     5     6 ar  
    10     5    40 1   
    11     6     7 ar  
    12     6    41 1   
    13     7     8 1   
    14     8     9 ar  
    15     8    11 ar  
    16     9    10 ar  
    17     9    42 1   
    18    10    13 ar  
    19    10    43 1   
    20    11    12 ar  
    21    11    44 1   
    22    12    13 ar  
    23    12    45 1   
    24    13    14 1   
    25    14    15 1   
    26    14    20 2   
    27    15    16 1   
    28    15    46 1   
    29    16    17 1   
    30    16    47 1   
    31    17    18 2   
    32    17    20 1   
    33    18    19 ar  
    34    18    22 ar  
    35    19    27 ar  
    36    19    48 1   
    37    20    21 1   
    38    21    22 2   
    39    21    49 1   
    40    22    23 ar  
    41    23    24 ar  
    42    23    50 1   
    43    24    25 1   
    44    24    27 ar  
    45    25    26 1   
    46    26    51 1   
    47    26    52 1   
    48    26    53 1   
    49    27    28 1   
    50    28    29 1   
    51    29    30 1   
    52    29    54 1   
    53    29    55 1   
    54    30    31 1   
    55    30    56 1   
    56    30    57 1   
    57    31    32 1   
    58    31    36 1   
    59    32    33 1   
    60    32    58 1   
    61    32    59 1   
    62    33    34 1   
    63    33    60 1   
    64    33    61 1   
    65    34    35 1   
    66    34    62 1   
    67    34    63 1   
    68    35    36 1   
    69    35    64 1   
    70    35    65 1   
    71    36    66 1   
    72    36    67 1   
@<TRIPOS>SUBSTRUCTURE
     1 2HK         1 TEMP              0 ****  ****    0 ROOT
