@<TRIPOS>MOLECULE
2HL
   58    62     1     0     0
SMALL
abcg2


@<TRIPOS>ATOM
      1 C1           9.0810    -1.8520     0.8760 ca         1 2HL      -0.094000
      2 C2           8.2230    -2.5960     0.0770 ca         1 2HL      -0.116500
      3 C3           7.1170    -1.9940    -0.5050 ca         1 2HL      -0.077000
      4 C4           6.8720    -0.6380    -0.3050 ca         1 2HL      -0.145600
      5 C5           7.7480     0.1110     0.4750 ca         1 2HL      -0.077000
      6 C6           8.8400    -0.4990     1.0770 ca         1 2HL      -0.116500
      7 C7           5.7520     0.0590    -1.0120 c          1 2HL       0.611700
      8 O8           6.0040     1.0250    -1.7220 o          1 2HL      -0.588100
      9 N9           4.5090    -0.4480    -0.8700 n          1 2HL      -0.399800
     10 C10          4.0770    -1.2560     0.2610 c6         1 2HL       0.094500
     11 C11          3.2550    -0.4160     1.2320 c6         1 2HL      -0.101900
     12 C12          2.0810     0.2690     0.5350 c6         1 2HL      -0.082700
     13 C13          2.5650     1.0410    -0.6890 c6         1 2HL      -0.101900
     14 C14          3.3970     0.1440    -1.5950 c6         1 2HL       0.094500
     15 C15          1.3430     1.1570     1.5310 c3         1 2HL       0.082600
     16 N16          0.1840     1.8130     0.9640 na         1 2HL      -0.179600
     17 C17          0.1040     3.1080     0.5570 cc         1 2HL       0.421700
     18 N18         -1.0480     3.4360     0.0500 nd         1 2HL      -0.557100
     19 C19         -1.7940     2.2830     0.1170 ca         1 2HL       0.052400
     20 C20         -1.0310     1.2500     0.6890 ca         1 2HL      -0.064200
     21 C21         -1.5410    -0.0290     0.8830 ca         1 2HL      -0.120000
     22 C22         -2.8510    -0.2430     0.5010 ca         1 2HL      -0.076000
     23 C23         -3.6370     0.7800    -0.0670 ca         1 2HL      -0.187600
     24 C24         -3.1050     2.0460    -0.2760 ca         1 2HL       0.020000
     25 C25         -5.0460     0.5550    -0.4980 c          1 2HL       0.625700
     26 O26         -5.5600     1.2230    -1.3780 o          1 2HL      -0.577100
     27 N27         -5.7070    -0.4270     0.1730 ns         1 2HL      -0.141000
     28 C28         -7.0170    -0.8640    -0.0140 ca         1 2HL      -0.070000
     29 C29         -7.8220    -0.5640    -1.1110 ca         1 2HL      -0.096000
     30 C30         -9.1010    -1.0980    -1.1500 ca         1 2HL      -0.137000
     31 C31         -9.5400    -1.9060    -0.1160 ca         1 2HL       0.303900
     32 N32         -8.7740    -2.2010     0.9290 nb         1 2HL      -0.644000
     33 C33         -7.5560    -1.6940     0.9750 ca         1 2HL       0.282900
     34 H1           9.9390    -2.3250     1.3370 ha         1 2HL       0.116000
     35 H2           8.4130    -3.6480    -0.0920 ha         1 2HL       0.117500
     36 H3           6.4500    -2.5810    -1.1250 ha         1 2HL       0.122000
     37 H4           7.5710     1.1680     0.6250 ha         1 2HL       0.122000
     38 H5           9.5060     0.0850     1.6980 ha         1 2HL       0.117500
     39 H6           3.4790    -2.0910    -0.1160 h1         1 2HL       0.062700
     40 H7           4.9340    -1.6810     0.7750 h1         1 2HL       0.062700
     41 H8           2.8940    -1.0590     2.0380 hc         1 2HL       0.054200
     42 H9           3.9070     0.3350     1.6920 hc         1 2HL       0.054200
     43 H10          1.3950    -0.5160     0.1920 hc         1 2HL       0.060700
     44 H11          1.7200     1.4310    -1.2620 hc         1 2HL       0.054200
     45 H12          3.1660     1.9020    -0.3770 hc         1 2HL       0.054200
     46 H13          3.7710     0.6950    -2.4550 h1         1 2HL       0.062700
     47 H14          2.7770    -0.6740    -1.9750 h1         1 2HL       0.062700
     48 H15          1.0220     0.5760     2.3980 h1         1 2HL       0.061700
     49 H16          2.0070     1.9390     1.9040 h1         1 2HL       0.061700
     50 H17          0.9460     3.7760     0.6700 h5         1 2HL       0.065800
     51 H18         -0.9540    -0.8310     1.3090 ha         1 2HL       0.121000
     52 H19         -3.2540    -1.2400     0.6210 ha         1 2HL       0.112000
     53 H20         -3.6960     2.8350    -0.7220 ha         1 2HL       0.153000
     54 H21         -5.2430    -0.8230     0.9760 hn         1 2HL       0.155000
     55 H22         -7.4740     0.0610    -1.9170 ha         1 2HL       0.152000
     56 H23         -9.7530    -0.8820    -1.9860 ha         1 2HL       0.125000
     57 H24        -10.5360    -2.3320    -0.1290 h4         1 2HL       0.021100
     58 H25         -6.9530    -1.9530     1.8410 h4         1 2HL       0.011100
@<TRIPOS>BOND
     1     1     2 ar  
     2     1     6 ar  
     3     1    34 1   
     4     2     3 ar  
     5     2    35 1   
     6     3     4 ar  
     7     3    36 1   
     8     4     5 ar  
     9     4     7 1   
    10     5     6 ar  
    11     5    37 1   
    12     6    38 1   
    13     7     8 2   
    14     7     9 1   
    15     9    10 1   
    16     9    14 1   
    17    10    11 1   
    18    10    39 1   
    19    10    40 1   
    20    11    12 1   
    21    11    41 1   
    22    11    42 1   
    23    12    13 1   
    24    12    15 1   
    25    12    43 1   
    26    13    14 1   
    27    13    44 1   
    28    13    45 1   
    29    14    46 1   
    30    14    47 1   
    31    15    16 1   
    32    15    48 1   
    33    15    49 1   
    34    16    17 1   
    35    16    20 1   
    36    17    18 2   
    37    17    50 1   
    38    18    19 1   
    39    19    20 ar  
    40    19    24 ar  
    41    20    21 ar  
    42    21    22 ar  
    43    21    51 1   
    44    22    23 ar  
    45    22    52 1   
    46    23    24 ar  
    47    23    25 1   
    48    24    53 1   
    49    25    26 2   
    50    25    27 1   
    51    27    28 1   
    52    27    54 1   
    53    28    29 ar  
    54    28    33 ar  
    55    29    30 ar  
    56    29    55 1   
    57    30    31 ar  
    58    30    56 1   
    59    31    32 ar  
    60    31    57 1   
    61    32    33 ar  
    62    33    58 1   
@<TRIPOS>SUBSTRUCTURE
     1 2HL         1 TEMP              0 ****  ****    0 ROOT
