@<TRIPOS>MOLECULE
2HL
   58    62     1     0     0
SMALL
No Charge or Current Charge


@<TRIPOS>ATOM
      1 C1           8.9450    -2.5990     0.7640 ca         1 2HL      -0.094000
      2 C2           7.7380    -3.1520     0.3100 ca         1 2HL      -0.116500
      3 C3           6.7290    -2.3200    -0.2060 ca         1 2HL      -0.077000
      4 C4           6.9110    -0.9170    -0.2590 ca         1 2HL      -0.145600
      5 C5           8.1410    -0.3770     0.1770 ca         1 2HL      -0.077000
      6 C6           9.1480    -1.2110     0.6920 ca         1 2HL      -0.116500
      7 C7           5.8540     0.0040    -0.8340 c          1 2HL       0.611700
      8 O8           6.1830     0.9990    -1.4700 o          1 2HL      -0.588100
      9 N9           4.4910    -0.3590    -0.7140 n          1 2HL      -0.399800
     10 C10          3.9520    -1.0180     0.5100 c6         1 2HL       0.094500
     11 C11          3.1570    -0.0240     1.3900 c6         1 2HL      -0.101900
     12 C12          2.0360     0.6840     0.5860 c6         1 2HL      -0.082700
     13 C13          2.6440     1.3470    -0.6790 c6         1 2HL      -0.101900
     14 C14          3.4370     0.3170    -1.5170 c6         1 2HL       0.094500
     15 C15          1.2610     1.7000     1.4750 c3         1 2HL       0.082600
     16 N16          0.1070     2.3410     0.8220 na         1 2HL      -0.179600
     17 C17          0.0210     3.6170     0.2620 cc         1 2HL       0.421700
     18 N18         -1.2080     3.8310    -0.2590 nd         1 2HL      -0.557100
     19 C19         -1.8910     2.6410    -0.0040 ca         1 2HL       0.052400
     20 C20         -1.1040     1.7380     0.6490 ca         1 2HL      -0.064200
     21 C21         -1.5590     0.4680     1.0200 ca         1 2HL      -0.120000
     22 C22         -2.8870     0.1240     0.6950 ca         1 2HL      -0.076000
     23 C23         -3.7340     1.0480     0.0110 ca         1 2HL      -0.187600
     24 C24         -3.2160     2.3240    -0.3390 ca         1 2HL       0.020000
     25 C25         -5.1660     0.7150    -0.3550 c          1 2HL       0.625700
     26 O26         -5.8720     1.5270    -0.9420 o          1 2HL      -0.577100
     27 N27         -5.6090    -0.5510     0.0150 ns         1 2HL      -0.141000
     28 C28         -6.8580    -1.2190    -0.1470 ca         1 2HL      -0.070000
     29 C29         -7.9840    -0.6460    -0.7810 ca         1 2HL      -0.096000
     30 C30         -9.1590    -1.4110    -0.8770 ca         1 2HL      -0.137000
     31 C31         -9.1820    -2.7110    -0.3450 ca         1 2HL       0.303900
     32 N32         -8.1130    -3.2720     0.2640 nb         1 2HL      -0.644000
     33 C33         -6.9820    -2.5340     0.3560 ca         1 2HL       0.282900
     34 H1           9.7260    -3.2440     1.1610 ha         1 2HL       0.116000
     35 H2           7.5850    -4.2280     0.3490 ha         1 2HL       0.117500
     36 H3           5.8120    -2.7720    -0.5790 ha         1 2HL       0.122000
     37 H4           8.3140     0.6970     0.1250 ha         1 2HL       0.122000
     38 H5          10.0870    -0.7810     1.0340 ha         1 2HL       0.117500
     39 H6           3.2970    -1.8490     0.2100 h1         1 2HL       0.062700
     40 H7           4.7580    -1.4430     1.1230 h1         1 2HL       0.062700
     41 H8           2.7280    -0.5580     2.2480 hc         1 2HL       0.054200
     42 H9           3.8490     0.7240     1.8030 hc         1 2HL       0.054200
     43 H10          1.3070    -0.0750     0.2670 hc         1 2HL       0.060700
     44 H11          1.8530     1.7840    -1.3030 hc         1 2HL       0.054200
     45 H12          3.3100     2.1720    -0.3900 hc         1 2HL       0.054200
     46 H13          3.8760     0.8130    -2.3940 h1         1 2HL       0.062700
     47 H14          2.7440    -0.4460    -1.9010 h1         1 2HL       0.062700
     48 H15          0.9030     1.1830     2.3760 h1         1 2HL       0.061700
     49 H16          1.9550     2.4840     1.8040 h1         1 2HL       0.061700
     50 H17          0.8530     4.3110     0.2620 h5         1 2HL       0.065800
     51 H18         -0.9150    -0.2370     1.5420 ha         1 2HL       0.121000
     52 H19         -3.2410    -0.8630     0.9820 ha         1 2HL       0.112000
     53 H20         -3.8260     3.0590    -0.8600 ha         1 2HL       0.153000
     54 H21         -4.9110    -1.1060     0.4920 hn         1 2HL       0.155000
     55 H22         -7.9710     0.3590    -1.1940 ha         1 2HL       0.152000
     56 H23        -10.0460    -1.0070    -1.3570 ha         1 2HL       0.125000
     57 H24        -10.0820    -3.3210    -0.4080 h4         1 2HL       0.021100
     58 H25         -6.1400    -3.0150     0.8520 h4         1 2HL       0.011100
@<TRIPOS>BOND
     1     1     2 ar  
     2     1     6 ar  
     3     1    34 1   
     4     2     3 ar  
     5     2    35 1   
     6     3     4 ar  
     7     3    36 1   
     8     4     5 ar  
     9     4     7 1   
    10     5     6 ar  
    11     5    37 1   
    12     6    38 1   
    13     7     8 2   
    14     7     9 1   
    15     9    10 1   
    16     9    14 1   
    17    10    11 1   
    18    10    39 1   
    19    10    40 1   
    20    11    12 1   
    21    11    41 1   
    22    11    42 1   
    23    12    13 1   
    24    12    15 1   
    25    12    43 1   
    26    13    14 1   
    27    13    44 1   
    28    13    45 1   
    29    14    46 1   
    30    14    47 1   
    31    15    16 1   
    32    15    48 1   
    33    15    49 1   
    34    16    17 1   
    35    16    20 1   
    36    17    18 2   
    37    17    50 1   
    38    18    19 1   
    39    19    20 ar  
    40    19    24 ar  
    41    20    21 ar  
    42    21    22 ar  
    43    21    51 1   
    44    22    23 ar  
    45    22    52 1   
    46    23    24 ar  
    47    23    25 1   
    48    24    53 1   
    49    25    26 2   
    50    25    27 1   
    51    27    28 1   
    52    27    54 1   
    53    28    29 ar  
    54    28    33 ar  
    55    29    30 ar  
    56    29    55 1   
    57    30    31 ar  
    58    30    56 1   
    59    31    32 ar  
    60    31    57 1   
    61    32    33 ar  
    62    33    58 1   
@<TRIPOS>SUBSTRUCTURE
     1 2HL         1 TEMP              0 ****  ****    0 ROOT
