@<TRIPOS>MOLECULE
2HM
   27    26     1     0     0
SMALL
bcc


@<TRIPOS>ATOM
      1 C11         -0.7930     1.2730     0.6060 c3         1 2HM      -0.136400
      2 C21         -2.1260     0.9990    -0.0470 c          1 2HM       0.692100
      3 O21         -2.4610     1.4760    -1.1170 o          1 2HM      -0.601100
      4 N3          -2.9240     0.1970     0.6880 ns         1 2HM      -0.448400
      5 O3          -4.0590    -0.3160     0.1330 oh         1 2HM      -0.388100
      6 C            0.0690    -0.9810     0.0000 c          1 2HM       0.915600
      7 O            0.3250    -1.5170     1.0990 o          1 2HM      -0.833800
      8 C2           0.3460     0.5320    -0.1110 c3         1 2HM      -0.192700
      9 C3           1.6870     0.9630     0.4740 c3         1 2HM      -0.034400
     10 C4           2.9100     0.2480    -0.1020 c3         1 2HM      -0.059700
     11 C5           3.0290     0.4170    -1.6140 c3         1 2HM      -0.082100
     12 CM4          4.1770     0.7420     0.5890 c3         1 2HM      -0.082100
     13 H12         -0.6220     2.3520     0.5670 hc         1 2HM       0.040700
     14 H13         -0.7980     0.9950     1.6640 hc         1 2HM       0.040700
     15 HN          -2.5570    -0.3380     1.4630 hn         1 2HM       0.340500
     16 HO          -4.7920     0.1620     0.5400 ho         1 2HM       0.376000
     17 H22          0.3040     0.8160    -1.1660 hc         1 2HM       0.053700
     18 H31          1.8020     2.0410     0.3050 hc         1 2HM       0.016200
     19 H32          1.6740     0.8220     1.5600 hc         1 2HM       0.016200
     20 H4           2.8070    -0.8210     0.1120 hc         1 2HM       0.078700
     21 H51          2.1290     0.0890    -2.1350 hc         1 2HM       0.020700
     22 H52          3.2070     1.4620    -1.8790 hc         1 2HM       0.020700
     23 H53          3.8630    -0.1700    -2.0060 hc         1 2HM       0.020700
     24 HM41         4.1470     0.5500     1.6630 hc         1 2HM       0.020700
     25 HM42         5.0680     0.2540     0.1870 hc         1 2HM       0.020700
     26 HM43         4.3020     1.8190     0.4490 hc         1 2HM       0.020700
     27 OXT         -0.4480    -1.5350    -0.9900 o          1 2HM      -0.833800
@<TRIPOS>BOND
     1     1     2 1   
     2     1     8 1   
     3     1    13 1   
     4     1    14 1   
     5     2     3 2   
     6     2     4 1   
     7     4     5 1   
     8     4    15 1   
     9     5    16 1   
    10     6     7 1   
    11     6     8 1   
    12     6    27 1   
    13     8     9 1   
    14     8    17 1   
    15     9    10 1   
    16     9    18 1   
    17     9    19 1   
    18    10    11 1   
    19    10    12 1   
    20    10    20 1   
    21    11    21 1   
    22    11    22 1   
    23    11    23 1   
    24    12    24 1   
    25    12    25 1   
    26    12    26 1   
@<TRIPOS>SUBSTRUCTURE
     1 2HM         1 TEMP              0 ****  ****    0 ROOT
