@<TRIPOS>MOLECULE
2HM
   27    26     1     0     0
SMALL
No Charge or Current Charge


@<TRIPOS>ATOM
      1 C11         -0.8330     1.3490     0.5540 c3         1 2HM      -0.136400
      2 C21         -2.2000     1.0280    -0.0770 c          1 2HM       0.625100
      3 O21         -2.5400     1.4680    -1.1700 o          1 2HM      -0.601100
      4 N3          -3.0390     0.2470     0.7100 ns         1 2HM      -0.381400
      5 O3          -4.2540    -0.3260     0.1700 oh         1 2HM      -0.427100
      6 C            0.0900    -0.9830     0.0230 c          1 2HM       0.705000
      7 O            0.0100    -1.4660     1.1420 o          1 2HM      -0.728500
      8 C2           0.3250     0.5420    -0.1080 c3         1 2HM      -0.192700
      9 C3           1.7080     0.9710     0.4630 c3         1 2HM      -0.034400
     10 C4           2.9490     0.2500    -0.1380 c3         1 2HM      -0.059700
     11 C5           3.1100     0.4890    -1.6590 c3         1 2HM      -0.082100
     12 CM4          4.2380     0.6560     0.6150 c3         1 2HM      -0.082100
     13 H12         -0.6330     2.4180     0.4150 hc         1 2HM       0.040700
     14 H13         -0.8520     1.1170     1.6250 hc         1 2HM       0.040700
     15 HN          -2.6480    -0.2160     1.5290 hn         1 2HM       0.340500
     16 HO          -4.9330    -0.1030     0.8480 ho         1 2HM       0.415000
     17 H22          0.3200     0.7890    -1.1770 hc         1 2HM       0.053700
     18 H31          1.8290     2.0520     0.3210 hc         1 2HM       0.016200
     19 H32          1.7000     0.8060     1.5480 hc         1 2HM       0.016200
     20 H4           2.8230    -0.8300     0.0140 hc         1 2HM       0.078700
     21 H51          2.2640     0.0720    -2.2180 hc         1 2HM       0.020700
     22 H52          3.1770     1.5610    -1.8800 hc         1 2HM       0.020700
     23 H53          4.0200     0.0050    -2.0320 hc         1 2HM       0.020700
     24 HM41         4.1490     0.4330     1.6850 hc         1 2HM       0.020700
     25 HM42         5.1040     0.1060     0.2270 hc         1 2HM       0.020700
     26 HM43         4.4340     1.7290     0.5030 hc         1 2HM       0.020700
     27 OXT         -0.0490    -1.6330    -1.0010 o          1 2HM      -0.728500
@<TRIPOS>BOND
     1     1     2 1   
     2     1     8 1   
     3     1    13 1   
     4     1    14 1   
     5     2     3 2   
     6     2     4 1   
     7     4     5 1   
     8     4    15 1   
     9     5    16 1   
    10     6     7 1   
    11     6     8 1   
    12     6    27 1   
    13     8     9 1   
    14     8    17 1   
    15     9    10 1   
    16     9    18 1   
    17     9    19 1   
    18    10    11 1   
    19    10    12 1   
    20    10    20 1   
    21    11    21 1   
    22    11    22 1   
    23    11    23 1   
    24    12    24 1   
    25    12    25 1   
    26    12    26 1   
@<TRIPOS>SUBSTRUCTURE
     1 2HM         1 TEMP              0 ****  ****    0 ROOT
