@<TRIPOS>MOLECULE
2HN
   35    36     1     0     0
SMALL
No Charge or Current Charge


@<TRIPOS>ATOM
      1 FAK          1.0450    -1.8930    -1.4810 f          1 2HN      -0.142000
      2 CAT          1.7850    -0.9330    -0.8780 ca         1 2HN       0.172000
      3 CAR          3.1360    -1.1950    -0.5780 ca         1 2HN       0.091500
      4 FAI          3.6810    -2.3940    -0.8970 f          1 2HN      -0.146000
      5 CAP          3.9200    -0.2140     0.0530 ca         1 2HN       0.125000
      6 FAG          5.2190    -0.4660     0.3410 f          1 2HN      -0.147000
      7 CAQ          3.3540     1.0290     0.3840 ca         1 2HN       0.091500
      8 FAH          4.1090     1.9760     0.9910 f          1 2HN      -0.146000
      9 CAS          2.0030     1.2900     0.0850 ca         1 2HN       0.172000
     10 FAJ          1.4740     2.4930     0.4090 f          1 2HN      -0.142000
     11 CAU          1.2000     0.3130    -0.5480 ca         1 2HN      -0.105300
     12 CAL         -0.2740     0.6040    -0.8610 c3         1 2HN      -0.023100
     13 CAX         -1.2160     0.4800     0.3940 c6         1 2HN      -0.154700
     14 CAY         -2.6860     0.9460     0.1090 c6         1 2HN       0.041000
     15 OAF         -3.3630     1.0080     1.3880 oh         1 2HN      -0.704000
     16 CAN         -2.7010     2.4010    -0.5420 c          1 2HN       0.702000
     17 OAC         -2.6180     3.3310     0.2510 o          1 2HN      -0.703000
     18 OAA         -3.1900     2.5450    -1.6540 o          1 2HN      -0.703000
     19 CAO         -1.1310    -0.9760     0.9080 c          1 2HN       0.565100
     20 OAB         -0.2860    -1.3070     1.7350 o          1 2HN      -0.547100
     21 CAW         -2.0390    -2.0450     0.2190 c6         1 2HN       0.028300
     22 OAE         -2.1310    -3.2750     0.9920 oh         1 2HN      -0.664000
     23 CAV         -3.4520    -1.5080    -0.1280 c6         1 2HN       0.186300
     24 OAD         -4.1150    -2.4470    -0.9840 oh         1 2HN      -0.669000
     25 CAM         -3.4080    -0.1110    -0.7890 c6         1 2HN      -0.058400
     26 HAL1        -0.3320     1.6150    -1.2820 hc         1 2HN       0.091700
     27 HAL2        -0.6240    -0.0450    -1.6720 hc         1 2HN       0.091700
     28 HAX         -0.7640     1.1200     1.1630 hc         1 2HN       0.083700
     29 HAF         -3.3580     1.9690     1.6230 ho         1 2HN       0.483000
     30 HAM1        -4.4390     0.2190    -0.9790 hc         1 2HN       0.063700
     31 HAM2        -2.9290    -0.1780    -1.7740 hc         1 2HN       0.063700
     32 HAW         -1.5290    -2.2520    -0.7330 h1         1 2HN       0.052700
     33 HAE         -1.2880    -3.3560     1.4970 ho         1 2HN       0.450000
     34 HAV         -4.0150    -1.4190     0.8130 h1         1 2HN       0.058700
     35 HAD         -3.8940    -3.3280    -0.6050 ho         1 2HN       0.441000
@<TRIPOS>BOND
     1     1     2 1   
     2     2     3 ar  
     3     2    11 ar  
     4     3     4 1   
     5     3     5 ar  
     6     5     6 1   
     7     5     7 ar  
     8     7     8 1   
     9     7     9 ar  
    10     9    10 1   
    11     9    11 ar  
    12    11    12 1   
    13    12    13 1   
    14    12    26 1   
    15    12    27 1   
    16    13    14 1   
    17    13    19 1   
    18    13    28 1   
    19    14    15 1   
    20    14    16 1   
    21    14    25 1   
    22    15    29 1   
    23    16    17 1   
    24    16    18 1   
    25    19    20 2   
    26    19    21 1   
    27    21    22 1   
    28    21    23 1   
    29    21    32 1   
    30    22    33 1   
    31    23    24 1   
    32    23    25 1   
    33    23    34 1   
    34    24    35 1   
    35    25    30 1   
    36    25    31 1   
@<TRIPOS>SUBSTRUCTURE
     1 2HN         1 TEMP              0 ****  ****    0 ROOT
