@<TRIPOS>MOLECULE
2HN
   35    36     1     0     0
SMALL
bcc


@<TRIPOS>ATOM
      1 FAK          1.0090    -1.8470    -1.5510 f          1 2HN      -0.106900
      2 CAT          1.7240    -0.9230    -0.9080 ca         1 2HN       0.136900
      3 CAR          3.0360    -1.2350    -0.5980 ca         1 2HN       0.056400
      4 FAI          3.5450    -2.4160    -0.9310 f          1 2HN      -0.110900
      5 CAP          3.8180    -0.3080     0.0620 ca         1 2HN       0.089900
      6 FAG          5.0770    -0.5950     0.3670 f          1 2HN      -0.111900
      7 CAQ          3.2820     0.9190     0.4030 ca         1 2HN       0.056400
      8 FAH          4.0320     1.8160     1.0350 f          1 2HN      -0.110900
      9 CAS          1.9690     1.2020     0.0800 ca         1 2HN       0.136900
     10 FAJ          1.4880     2.3980     0.4160 f          1 2HN      -0.106900
     11 CAU          1.1510     0.2940    -0.5790 ca         1 2HN      -0.105300
     12 CAL         -0.2770     0.6370    -0.9040 c3         1 2HN      -0.023100
     13 CAX         -1.1890     0.5590     0.3380 c6         1 2HN      -0.154700
     14 CAY         -2.6800     0.9160     0.1110 c6         1 2HN       0.017800
     15 OAF         -3.2800     0.9360     1.3870 oh         1 2HN      -0.641800
     16 CAN         -2.8160     2.3340    -0.5070 c          1 2HN       0.912600
     17 OAC         -3.1600     3.2170     0.3090 o          1 2HN      -0.808300
     18 OAA         -2.5790     2.4700    -1.7160 o          1 2HN      -0.808300
     19 CAO         -1.1390    -0.8190     0.9590 c          1 2HN       0.565100
     20 OAB         -0.4990    -1.0630     1.9550 o          1 2HN      -0.547100
     21 CAW         -1.9030    -1.9150     0.2320 c6         1 2HN       0.005100
     22 OAE         -1.9380    -3.1100     0.9570 oh         1 2HN      -0.601800
     23 CAV         -3.3440    -1.5020    -0.0750 c6         1 2HN       0.163100
     24 OAD         -3.9550    -2.4300    -0.9420 oh         1 2HN      -0.606800
     25 CAM         -3.3760    -0.1380    -0.7430 c6         1 2HN      -0.058400
     26 HAL1        -0.3180     1.6500    -1.3000 hc         1 2HN       0.091700
     27 HAL2        -0.6430    -0.0030    -1.7060 hc         1 2HN       0.091700
     28 HAX         -0.8010     1.2590     1.0830 hc         1 2HN       0.083700
     29 HAF         -3.4030     1.8920     1.5450 ho         1 2HN       0.444000
     30 HAM1        -4.4170     0.1560    -0.9070 hc         1 2HN       0.063700
     31 HAM2        -2.9090    -0.1990    -1.7290 hc         1 2HN       0.063700
     32 HAW         -1.4030    -2.0510    -0.7420 h1         1 2HN       0.052700
     33 HAE         -1.0400    -3.3800     1.1750 ho         1 2HN       0.411000
     34 HAV         -3.8910    -1.4510     0.8760 h1         1 2HN       0.058700
     35 HAD         -4.0250    -3.2730    -0.4830 ho         1 2HN       0.402000
@<TRIPOS>BOND
     1     1     2 1   
     2     2     3 ar  
     3     2    11 ar  
     4     3     4 1   
     5     3     5 ar  
     6     5     6 1   
     7     5     7 ar  
     8     7     8 1   
     9     7     9 ar  
    10     9    10 1   
    11     9    11 ar  
    12    11    12 1   
    13    12    13 1   
    14    12    26 1   
    15    12    27 1   
    16    13    14 1   
    17    13    19 1   
    18    13    28 1   
    19    14    15 1   
    20    14    16 1   
    21    14    25 1   
    22    15    29 1   
    23    16    17 1   
    24    16    18 1   
    25    19    20 2   
    26    19    21 1   
    27    21    22 1   
    28    21    23 1   
    29    21    32 1   
    30    22    33 1   
    31    23    24 1   
    32    23    25 1   
    33    23    34 1   
    34    24    35 1   
    35    25    30 1   
    36    25    31 1   
@<TRIPOS>SUBSTRUCTURE
     1 2HN         1 TEMP              0 ****  ****    0 ROOT
