@<TRIPOS>MOLECULE
2HO
   16    16     1     0     0
SMALL
bcc


@<TRIPOS>ATOM
      1 N1          -2.9450     1.2440    -0.0040 nt         1 2HO      -0.670000
      2 C4          -0.9520    -0.1410    -0.0210 ca         1 2HO      -0.141600
      3 C5          -0.4280    -1.4300    -0.0250 ca         1 2HO      -0.063000
      4 C6           0.9410    -1.6460    -0.0130 ca         1 2HO      -0.158000
      5 C7           1.7920    -0.5620     0.0020 ca         1 2HO       0.120900
      6 C9           1.2820     0.7260     0.0050 ca         1 2HO       0.084900
      7 F8           3.1130    -0.7350     0.0140 f          1 2HO      -0.119900
      8 C11         -0.0770     0.9450    -0.0060 ca         1 2HO      -0.124000
      9 C2          -2.4450     0.0020    -0.0350 c          1 2HO       0.688700
     10 O3          -3.1600    -0.9890    -0.0740 o          1 2HO      -0.602100
     11 H1          -2.3870     2.0780     0.0360 hn         1 2HO       0.317500
     12 H2          -3.9440     1.3730    -0.0130 hn         1 2HO       0.317500
     13 H3          -1.0950    -2.2810    -0.0370 ha         1 2HO       0.168000
     14 H4           1.3460    -2.6490    -0.0150 ha         1 2HO       0.160000
     15 H5          -0.4130     1.9740    -0.0050 ha         1 2HO       0.145000
     16 F10          2.1290     1.7580     0.0180 f          1 2HO      -0.123900
@<TRIPOS>BOND
     1     1     9 1   
     2     1    11 1   
     3     1    12 1   
     4     2     3 ar  
     5     2     8 ar  
     6     2     9 1   
     7     3     4 ar  
     8     3    13 1   
     9     4     5 ar  
    10     4    14 1   
    11     5     6 ar  
    12     5     7 1   
    13     6     8 ar  
    14     6    16 1   
    15     8    15 1   
    16     9    10 2   
@<TRIPOS>SUBSTRUCTURE
     1 2HO         1 TEMP              0 ****  ****    0 ROOT
