@<TRIPOS>MOLECULE
2HO
   16    16     1     0     0
SMALL
No Charge or Current Charge


@<TRIPOS>ATOM
      1 N1          -2.9760     1.2680    -0.0150 nt         1 2HO      -0.603000
      2 C4          -0.9700    -0.1610    -0.0160 ca         1 2HO      -0.141600
      3 C5          -0.4240    -1.4670    -0.0270 ca         1 2HO      -0.045000
      4 C6           0.9690    -1.6640    -0.0190 ca         1 2HO      -0.140000
      5 C7           1.8340    -0.5600     0.0000 ca         1 2HO       0.156000
      6 C9           1.3080     0.7440     0.0110 ca         1 2HO       0.120000
      7 F8           3.1720    -0.7590     0.0080 f          1 2HO      -0.155000
      8 C11         -0.0830     0.9460     0.0030 ca         1 2HO      -0.106000
      9 C2          -2.4750     0.0140    -0.0260 c          1 2HO       0.621700
     10 O3          -3.2470    -0.9300    -0.0420 o          1 2HO      -0.602100
     11 H1          -2.3580     2.0640    -0.0010 hn         1 2HO       0.317500
     12 H2          -3.9760     1.3960    -0.0210 hn         1 2HO       0.317500
     13 H3          -1.0800    -2.3360    -0.0420 ha         1 2HO       0.150000
     14 H4           1.3780    -2.6710    -0.0270 ha         1 2HO       0.142000
     15 H5          -0.4530     1.9680     0.0120 ha         1 2HO       0.127000
     16 F10          2.1360     1.8130     0.0300 f          1 2HO      -0.159000
@<TRIPOS>BOND
     1     1     9 1   
     2     1    11 1   
     3     1    12 1   
     4     2     3 ar  
     5     2     8 ar  
     6     2     9 1   
     7     3     4 ar  
     8     3    13 1   
     9     4     5 ar  
    10     4    14 1   
    11     5     6 ar  
    12     5     7 1   
    13     6     8 ar  
    14     6    16 1   
    15     8    15 1   
    16     9    10 2   
@<TRIPOS>SUBSTRUCTURE
     1 2HO         1 TEMP              0 ****  ****    0 ROOT
