@<TRIPOS>MOLECULE
2HP
    5     4     1     0     0
SMALL
bcc


@<TRIPOS>ATOM
      1 P           11.4450    39.4720    13.1700 p5         1 2HP       1.229000
      2 O1          10.2900    40.0210    14.0680 o          1 2HP      -1.057250
      3 O2          11.0310    38.0870    12.5780 o          1 2HP      -1.057250
      4 O3          11.7200    40.4780    12.0090 o          1 2HP      -1.057250
      5 O4          12.7380    39.3040    14.0310 o          1 2HP      -1.057250
@<TRIPOS>BOND
     1     1     2 1   
     2     1     3 1   
     3     1     4 1   
     4     1     5 1   
@<TRIPOS>SUBSTRUCTURE
     1 2HP         1 TEMP              0 ****  ****    0 ROOT
