@<TRIPOS>MOLECULE
2HP
    5     4     1     0     0
SMALL
No Charge or Current Charge


@<TRIPOS>ATOM
      1 P           11.4450    39.4720    13.1710 p5         1 2HP       1.229000
      2 O1          10.3530    39.9900    14.0200 o          1 2HP      -1.057250
      3 O2          11.0530    38.1630    12.6090 o          1 2HP      -1.057250
      4 O3          11.7060    40.4220    12.0710 o          1 2HP      -1.057250
      5 O4          12.6680    39.3130    13.9850 o          1 2HP      -1.057250
@<TRIPOS>BOND
     1     1     2 1   
     2     1     3 1   
     3     1     4 1   
     4     1     5 1   
@<TRIPOS>SUBSTRUCTURE
     1 2HP         1 TEMP              0 ****  ****    0 ROOT
