@<TRIPOS>MOLECULE
2HQ
   16    17     1     0     0
SMALL
No Charge or Current Charge


@<TRIPOS>ATOM
      1 OAL         -1.9710    -2.2180    -0.0100 o          1 2HQ      -0.435100
      2 CAI         -1.7530    -1.0090    -0.0120 c          1 2HQ       0.510700
      3 CAE         -0.4210    -0.3290    -0.0010 ca         1 2HQ      -0.241600
      4 CAF          0.8740    -0.8710     0.0130 ca         1 2HQ       0.010000
      5 CAA          1.9610     0.0300     0.0200 ca         1 2HQ       0.067000
      6 ClA          3.6070    -0.5930     0.0370 cl         1 2HQ      -0.185000
      7 CAB          1.7420     1.4300     0.0130 ca         1 2HQ      -0.037000
      8 CAC          0.4290     1.9520    -0.0010 ca         1 2HQ      -0.154000
      9 CAD         -0.6330     1.0440    -0.0080 ca         1 2HQ       0.107600
     10 NAH         -2.0110     1.2930    -0.0210 ns         1 2HQ      -0.408100
     11 CAJ         -2.8080     0.1700    -0.0250 c          1 2HQ       0.464000
     12 OAK         -4.0330     0.1200    -0.0370 o          1 2HQ      -0.461000
     13 H1           1.0380    -1.9460     0.0180 ha         1 2HQ       0.149000
     14 H2           2.5930     2.1070     0.0190 ha         1 2HQ       0.134000
     15 H3           0.2510     3.0240    -0.0060 ha         1 2HQ       0.132000
     16 H4          -2.3980     2.2310    -0.0280 hn         1 2HQ       0.346500
@<TRIPOS>BOND
     1     1     2 2   
     2     2     3 1   
     3     2    11 1   
     4     3     4 ar  
     5     3     9 ar  
     6     4     5 ar  
     7     4    13 1   
     8     5     6 1   
     9     5     7 ar  
    10     7     8 ar  
    11     7    14 1   
    12     8     9 ar  
    13     8    15 1   
    14     9    10 1   
    15    10    11 1   
    16    10    16 1   
    17    11    12 2   
@<TRIPOS>SUBSTRUCTURE
     1 2HQ         1 TEMP              0 ****  ****    0 ROOT
