@<TRIPOS>MOLECULE
2HQ
   16    17     1     0     0
SMALL
abcg2


@<TRIPOS>ATOM
      1 OAL         -2.0180    -2.1510    -0.0100 o          1 2HQ      -0.435100
      2 CAI         -1.7140    -0.9890    -0.0110 c          1 2HQ       0.510700
      3 CAE         -0.4090    -0.3390     0.0000 ca         1 2HQ      -0.241600
      4 CAF          0.8710    -0.8660     0.0130 ca         1 2HQ       0.010000
      5 CAA          1.9270     0.0310     0.0190 ca         1 2HQ       0.067000
      6 CLA          3.5520    -0.5640     0.0350 cl         1 2HQ      -0.185000
      7 CAB          1.7050     1.4060     0.0130 ca         1 2HQ      -0.037000
      8 CAC          0.4170     1.9300     0.0000 ca         1 2HQ      -0.154000
      9 CAD         -0.6370     1.0380    -0.0060 ca         1 2HQ       0.107600
     10 NAH         -2.0000     1.3120    -0.0200 ns         1 2HQ      -0.408100
     11 CAJ         -2.7420     0.1760    -0.0250 c          1 2HQ       0.464000
     12 OAK         -3.9400     0.0580    -0.0380 o          1 2HQ      -0.461000
     13 H1           1.0340    -1.9350     0.0180 ha         1 2HQ       0.149000
     14 H2           2.5470     2.0840     0.0180 ha         1 2HQ       0.134000
     15 H3           0.2630     3.0000    -0.0050 ha         1 2HQ       0.132000
     16 H4          -2.3890     2.2440    -0.0290 hn         1 2HQ       0.346500
@<TRIPOS>BOND
     1     1     2 2   
     2     2     3 1   
     3     2    11 1   
     4     3     4 ar  
     5     3     9 ar  
     6     4     5 ar  
     7     4    13 1   
     8     5     6 1   
     9     5     7 ar  
    10     7     8 ar  
    11     7    14 1   
    12     8     9 ar  
    13     8    15 1   
    14     9    10 1   
    15    10    11 1   
    16    10    16 1   
    17    11    12 2   
@<TRIPOS>SUBSTRUCTURE
     1 2HQ         1 TEMP              0 ****  ****    0 ROOT
