@<TRIPOS>MOLECULE
2HR
   46    46     1     0     0
SMALL
No Charge or Current Charge


@<TRIPOS>ATOM
      1 C6           8.6120     2.1380     6.1240 c3         1 2HR      -0.087100
      2 C5           7.3780     1.3140     5.7110 c3         1 2HR      -0.076400
      3 C4           6.0650     1.8470     6.3230 c3         1 2HR      -0.076400
      4 C3           4.8270     1.0140     5.9250 c3         1 2HR      -0.075400
      5 C2           3.5150     1.5520     6.5350 c3         1 2HR      -0.035400
      6 C1           2.2840     0.6880     6.1690 c3         1 2HR      -0.445400
      7 P            0.6760     1.2630     6.8640 p5         1 2HR       1.401400
      8 O           -0.3960     0.2630     6.5770 o          1 2HR      -0.821000
      9 O1           1.0360     1.3290     8.4350 os         1 2HR      -0.596400
     10 C7           1.4390     0.1410     9.1280 c3         1 2HR       0.219600
     11 C8           1.1330     0.3050    10.6410 c3         1 2HR      -0.053700
     12 C9          -0.3880     0.3520    10.9220 c3         1 2HR      -0.079100
     13 C10          1.8680     1.5140    11.2840 c3         1 2HR      -0.024100
     14 C11          3.3760     1.5220    11.0420 ca         1 2HR      -0.057300
     15 C16          4.1870     0.4840    11.5450 ca         1 2HR      -0.105000
     16 C15          5.5740     0.4910    11.3130 ca         1 2HR      -0.118000
     17 C14          6.1600     1.5380    10.5820 ca         1 2HR      -0.127000
     18 C13          5.3590     2.5790    10.0850 ca         1 2HR      -0.118000
     19 C12          3.9720     2.5700    10.3130 ca         1 2HR      -0.105000
     20 O2           0.3530     2.6180     6.3220 o          1 2HR      -0.821000
     21 H61          9.5190     1.7230     5.6680 hc         1 2HR       0.024033
     22 H62          8.5100     3.1800     5.7990 hc         1 2HR       0.024033
     23 H63          8.7400     2.1260     7.2140 hc         1 2HR       0.024033
     24 H51          7.5260     0.2720     6.0200 hc         1 2HR       0.032200
     25 H52          7.2970     1.3160     4.6170 hc         1 2HR       0.032200
     26 H41          6.1570     1.8510     7.4150 hc         1 2HR       0.033200
     27 H42          5.9160     2.8880     6.0090 hc         1 2HR       0.033200
     28 H31          4.9750    -0.0230     6.2490 hc         1 2HR       0.027200
     29 H32          4.7370     1.0000     4.8320 hc         1 2HR       0.027200
     30 H21          3.6230     1.5940     7.6250 hc         1 2HR       0.039700
     31 H22          3.3520     2.5820     6.1930 hc         1 2HR       0.039700
     32 H11          2.1580     0.6670     5.0810 hc         1 2HR       0.041700
     33 H12A         2.4360    -0.3440     6.5000 hc         1 2HR       0.041700
     34 H71          0.9050    -0.7410     8.7480 h1         1 2HR       0.017700
     35 H72          2.5130    -0.0370     8.9910 h1         1 2HR       0.017700
     36 H8           1.5100    -0.6010    11.1300 hc         1 2HR       0.020700
     37 H91         -0.8850    -0.5330    10.5060 hc         1 2HR       0.031367
     38 H92         -0.5810     0.3720    12.0010 hc         1 2HR       0.031367
     39 H93         -0.8440     1.2440    10.4760 hc         1 2HR       0.031367
     40 H101         1.6780     1.5080    12.3640 hc         1 2HR       0.046700
     41 H102         1.4200     2.4430    10.9090 hc         1 2HR       0.046700
     42 H16          3.7430    -0.3280    12.1150 ha         1 2HR       0.118000
     43 H15          6.1930    -0.3140    11.7010 ha         1 2HR       0.101500
     44 H14          7.2320     1.5430    10.4020 ha         1 2HR       0.098000
     45 H13          5.8110     3.3900     9.5190 ha         1 2HR       0.101500
     46 H12          3.3600     3.3770     9.9170 ha         1 2HR       0.118000
@<TRIPOS>BOND
     1     1     2 1   
     2     1    21 1   
     3     1    22 1   
     4     1    23 1   
     5     2     3 1   
     6     2    24 1   
     7     2    25 1   
     8     3     4 1   
     9     3    26 1   
    10     3    27 1   
    11     4     5 1   
    12     4    28 1   
    13     4    29 1   
    14     5     6 1   
    15     5    30 1   
    16     5    31 1   
    17     6     7 1   
    18     6    32 1   
    19     6    33 1   
    20     7     8 1   
    21     7     9 1   
    22     7    20 1   
    23     9    10 1   
    24    10    11 1   
    25    10    34 1   
    26    10    35 1   
    27    11    12 1   
    28    11    13 1   
    29    11    36 1   
    30    12    37 1   
    31    12    38 1   
    32    12    39 1   
    33    13    14 1   
    34    13    40 1   
    35    13    41 1   
    36    14    15 ar  
    37    14    19 ar  
    38    15    16 ar  
    39    15    42 1   
    40    16    17 ar  
    41    16    43 1   
    42    17    18 ar  
    43    17    44 1   
    44    18    19 ar  
    45    18    45 1   
    46    19    46 1   
@<TRIPOS>SUBSTRUCTURE
     1 2HR         1 TEMP              0 ****  ****    0 ROOT
