@<TRIPOS>MOLECULE
2HR
   46    46     1     0     0
SMALL
abcg2


@<TRIPOS>ATOM
      1 C6           8.5010     2.7080     5.6430 c3         1 2HR      -0.087100
      2 C5           7.4080     1.6540     5.5250 c3         1 2HR      -0.076400
      3 C4           6.0540     2.1450     6.0200 c3         1 2HR      -0.076400
      4 C3           4.9480     1.1050     5.8890 c3         1 2HR      -0.075400
      5 C2           3.5960     1.5960     6.3920 c3         1 2HR      -0.035400
      6 C1           2.4850     0.5700     6.2090 c3         1 2HR      -0.445400
      7 P            0.8460     1.0930     6.8320 p5         1 2HR       1.401400
      8 O           -0.1380    -0.0260     6.6000 o          1 2HR      -0.821000
      9 O1           1.1070     1.2620     8.4580 os         1 2HR      -0.596400
     10 C7           1.3640     0.1240     9.2550 c3         1 2HR       0.219600
     11 C8           1.0210     0.4090    10.7090 c3         1 2HR      -0.053700
     12 C9          -0.4680     0.6810    10.8960 c3         1 2HR      -0.079100
     13 C10          1.8560     1.5530    11.3040 c3         1 2HR      -0.024100
     14 C11          3.3380     1.3240    11.2060 ca         1 2HR      -0.057300
     15 C16          3.9670     0.3930    12.0320 ca         1 2HR      -0.105000
     16 C15          5.3280     0.1440    11.9210 ca         1 2HR      -0.118000
     17 C14          6.0880     0.8290    10.9800 ca         1 2HR      -0.127000
     18 C13          5.4740     1.7630    10.1570 ca         1 2HR      -0.118000
     19 C12          4.1120     2.0050    10.2710 ca         1 2HR      -0.105000
     20 O2           0.5320     2.4860     6.3560 o          1 2HR      -0.821000
     21 H61          9.4550     2.3430     5.2590 hc         1 2HR       0.024033
     22 H62          8.2410     3.6070     5.0820 hc         1 2HR       0.024033
     23 H63          8.6560     3.0020     6.6830 hc         1 2HR       0.024033
     24 H51          7.6970     0.7600     6.0870 hc         1 2HR       0.032200
     25 H52          7.3180     1.3380     4.4810 hc         1 2HR       0.032200
     26 H41          6.1430     2.4510     7.0690 hc         1 2HR       0.033200
     27 H42          5.7690     3.0480     5.4680 hc         1 2HR       0.033200
     28 H31          5.2340     0.2010     6.4390 hc         1 2HR       0.027200
     29 H32          4.8590     0.8050     4.8400 hc         1 2HR       0.027200
     30 H21          3.6830     1.8570     7.4500 hc         1 2HR       0.039700
     31 H22          3.3240     2.5190     5.8720 hc         1 2HR       0.039700
     32 H11          2.3640     0.3410     5.1450 hc         1 2HR       0.041700
     33 H12A         2.7640    -0.3770     6.6830 hc         1 2HR       0.041700
     34 H71          0.7730    -0.7330     8.9150 h1         1 2HR       0.017700
     35 H72          2.4210    -0.1610     9.1750 h1         1 2HR       0.017700
     36 H8           1.2740    -0.5070    11.2560 hc         1 2HR       0.020700
     37 H91         -1.0710    -0.1430    10.5130 hc         1 2HR       0.031367
     38 H92         -0.7130     0.8100    11.9520 hc         1 2HR       0.031367
     39 H93         -0.7740     1.5880    10.3720 hc         1 2HR       0.031367
     40 H101         1.5730     1.6690    12.3550 hc         1 2HR       0.046700
     41 H102         1.5920     2.4910    10.8090 hc         1 2HR       0.046700
     42 H16          3.3840    -0.1420    12.7730 ha         1 2HR       0.118000
     43 H15          5.7990    -0.5820    12.5720 ha         1 2HR       0.101500
     44 H14          7.1490     0.6360    10.8910 ha         1 2HR       0.098000
     45 H13          6.0590     2.3050     9.4240 ha         1 2HR       0.101500
     46 H12          3.6390     2.7330     9.6220 ha         1 2HR       0.118000
@<TRIPOS>BOND
     1     1     2 1   
     2     1    21 1   
     3     1    22 1   
     4     1    23 1   
     5     2     3 1   
     6     2    24 1   
     7     2    25 1   
     8     3     4 1   
     9     3    26 1   
    10     3    27 1   
    11     4     5 1   
    12     4    28 1   
    13     4    29 1   
    14     5     6 1   
    15     5    30 1   
    16     5    31 1   
    17     6     7 1   
    18     6    32 1   
    19     6    33 1   
    20     7     8 1   
    21     7     9 1   
    22     7    20 1   
    23     9    10 1   
    24    10    11 1   
    25    10    34 1   
    26    10    35 1   
    27    11    12 1   
    28    11    13 1   
    29    11    36 1   
    30    12    37 1   
    31    12    38 1   
    32    12    39 1   
    33    13    14 1   
    34    13    40 1   
    35    13    41 1   
    36    14    15 ar  
    37    14    19 ar  
    38    15    16 ar  
    39    15    42 1   
    40    16    17 ar  
    41    16    43 1   
    42    17    18 ar  
    43    17    44 1   
    44    18    19 ar  
    45    18    45 1   
    46    19    46 1   
@<TRIPOS>SUBSTRUCTURE
     1 2HR         1 TEMP              0 ****  ****    0 ROOT
