@<TRIPOS>MOLECULE
2HS
   46    46     1     0     0
SMALL
No Charge or Current Charge


@<TRIPOS>ATOM
      1 C6           2.6530     6.6640     6.4940 c3         1 2HS      -0.087100
      2 C5           3.4060     5.4030     6.9620 c3         1 2HS      -0.076400
      3 C4           2.9300     4.1170     6.2520 c3         1 2HS      -0.077400
      4 C3           3.6840     2.8530     6.7220 c3         1 2HS      -0.075400
      5 C2           3.2050     1.5670     6.0130 c3         1 2HS      -0.037400
      6 C1           3.9510     0.3010     6.4970 c3         1 2HS      -0.445400
      7 P            3.4390    -1.2720     5.6830 p5         1 2HS       1.403400
      8 O            4.0640    -2.4400     6.3730 o          1 2HS      -0.822500
      9 O1           1.8420    -1.2200     5.9050 os         1 2HS      -0.598400
     10 C7           1.3000    -1.3750     7.2220 c3         1 2HS       0.221600
     11 C8          -0.2370    -1.1620     7.1650 c3         1 2HS      -0.055700
     12 C9          -0.6070     0.2880     6.7700 c3         1 2HS      -0.075100
     13 C10         -0.9620    -2.2000     6.2680 c3         1 2HS      -0.024100
     14 C11         -0.7430    -3.6400     6.7190 ca         1 2HS      -0.076300
     15 C16          0.1610    -4.4740     6.0300 ca         1 2HS      -0.101000
     16 C15          0.3650    -5.7990     6.4510 ca         1 2HS      -0.118500
     17 C14         -0.3330    -6.3000     7.5630 ca         1 2HS      -0.131000
     18 C13         -1.2350    -5.4740     8.2540 ca         1 2HS      -0.118500
     19 C12         -1.4390    -4.1480     7.8340 ca         1 2HS      -0.101000
     20 O2           3.7870    -1.2130     4.2310 o          1 2HS      -0.822500
     21 H61          3.0240     7.5490     7.0250 hc         1 2HS       0.024033
     22 H62          2.7950     6.8240     5.4190 hc         1 2HS       0.024033
     23 H63          1.5790     6.5700     6.6930 hc         1 2HS       0.024033
     24 H51          3.2730     5.2910     8.0450 hc         1 2HS       0.031700
     25 H52          4.4790     5.5420     6.7830 hc         1 2HS       0.031700
     26 H41          1.8560     3.9830     6.4310 hc         1 2HS       0.035200
     27 H42          3.0620     4.2330     5.1690 hc         1 2HS       0.035200
     28 H31          3.5510     2.7370     7.8050 hc         1 2HS       0.026200
     29 H32          4.7580     2.9850     6.5410 hc         1 2HS       0.026200
     30 H21          2.1290     1.4480     6.1860 hc         1 2HS       0.041200
     31 H22          3.3430     1.6790     4.9300 hc         1 2HS       0.041200
     32 H11          5.0240     0.4080     6.3060 hc         1 2HS       0.041700
     33 H12A         3.8250     0.1750     7.5770 hc         1 2HS       0.041700
     34 H71          1.5180    -2.3770     7.6130 h1         1 2HS       0.015700
     35 H72          1.7330    -0.6430     7.9150 h1         1 2HS       0.015700
     36 H8          -0.6070    -1.3070     8.1880 hc         1 2HS       0.024700
     37 H91         -1.6900     0.4440     6.8400 hc         1 2HS       0.026700
     38 H92         -0.1190     1.0080     7.4390 hc         1 2HS       0.026700
     39 H93         -0.2960     0.5090     5.7420 hc         1 2HS       0.026700
     40 H101        -0.6390    -2.0720     5.2280 hc         1 2HS       0.047700
     41 H102        -2.0380    -1.9830     6.2720 hc         1 2HS       0.047700
     42 H16          0.7090    -4.0920     5.1710 ha         1 2HS       0.129500
     43 H15          1.0650    -6.4370     5.9160 ha         1 2HS       0.104000
     44 H14         -0.1740    -7.3250     7.8890 ha         1 2HS       0.094000
     45 H13         -1.7750    -5.8600     9.1160 ha         1 2HS       0.104000
     46 H12         -2.1380    -3.5140     8.3750 ha         1 2HS       0.129500
@<TRIPOS>BOND
     1     1     2 1   
     2     1    21 1   
     3     1    22 1   
     4     1    23 1   
     5     2     3 1   
     6     2    24 1   
     7     2    25 1   
     8     3     4 1   
     9     3    26 1   
    10     3    27 1   
    11     4     5 1   
    12     4    28 1   
    13     4    29 1   
    14     5     6 1   
    15     5    30 1   
    16     5    31 1   
    17     6     7 1   
    18     6    32 1   
    19     6    33 1   
    20     7     8 1   
    21     7     9 1   
    22     7    20 1   
    23     9    10 1   
    24    10    11 1   
    25    10    34 1   
    26    10    35 1   
    27    11    12 1   
    28    11    13 1   
    29    11    36 1   
    30    12    37 1   
    31    12    38 1   
    32    12    39 1   
    33    13    14 1   
    34    13    40 1   
    35    13    41 1   
    36    14    15 ar  
    37    14    19 ar  
    38    15    16 ar  
    39    15    42 1   
    40    16    17 ar  
    41    16    43 1   
    42    17    18 ar  
    43    17    44 1   
    44    18    19 ar  
    45    18    45 1   
    46    19    46 1   
@<TRIPOS>SUBSTRUCTURE
     1 2HS         1 TEMP              0 ****  ****    0 ROOT
