@<TRIPOS>MOLECULE
2HS
   46    46     1     0     0
SMALL
bcc


@<TRIPOS>ATOM
      1 C6           3.5510     6.8140     6.6780 c3         1 2HS      -0.087100
      2 C5           4.0130     5.4290     7.1120 c3         1 2HS      -0.076400
      3 C4           3.3050     4.3060     6.3640 c3         1 2HS      -0.077400
      4 C3           3.7680     2.9170     6.7840 c3         1 2HS      -0.075400
      5 C2           3.0730     1.7960     6.0190 c3         1 2HS      -0.037400
      6 C1           3.5680     0.4100     6.4160 c3         1 2HS      -0.287600
      7 P            2.8620    -0.9610     5.4310 p5         1 2HS       1.245600
      8 O            3.3800    -2.2700     5.9700 o          1 2HS      -0.822500
      9 O1           1.2430    -0.8330     5.7410 os         1 2HS      -0.575200
     10 C7           0.7280    -1.1040     7.0280 c3         1 2HS       0.198400
     11 C8          -0.7700    -1.3600     6.9390 c3         1 2HS      -0.055700
     12 C9          -1.5110    -0.1500     6.3790 c3         1 2HS      -0.075100
     13 C10         -1.1070    -2.6190     6.1220 c3         1 2HS      -0.024100
     14 C11         -0.6280    -3.9000     6.7470 ca         1 2HS      -0.076300
     15 C16          0.6490    -4.4010     6.4960 ca         1 2HS      -0.119000
     16 C15          1.0850    -5.5730     7.1010 ca         1 2HS      -0.136500
     17 C14          0.2520    -6.2670     7.9690 ca         1 2HS      -0.149000
     18 C13         -1.0220    -5.7770     8.2290 ca         1 2HS      -0.136500
     19 C12         -1.4530    -4.6050     7.6220 ca         1 2HS      -0.119000
     20 O2           2.9850    -0.6510     3.9630 o          1 2HS      -0.822500
     21 H61          4.0720     7.6020     7.2230 hc         1 2HS       0.024033
     22 H62          3.7320     6.9720     5.6130 hc         1 2HS       0.024033
     23 H63          2.4810     6.9440     6.8510 hc         1 2HS       0.024033
     24 H51          3.8490     5.3080     8.1880 hc         1 2HS       0.031700
     25 H52          5.0930     5.3390     6.9600 hc         1 2HS       0.031700
     26 H41          2.2240     4.3920     6.5200 hc         1 2HS       0.035200
     27 H42          3.4660     4.4300     5.2880 hc         1 2HS       0.035200
     28 H31          3.6000     2.7860     7.8590 hc         1 2HS       0.026200
     29 H32          4.8510     2.8360     6.6350 hc         1 2HS       0.026200
     30 H21          1.9930     1.8650     6.1820 hc         1 2HS       0.041200
     31 H22          3.2290     1.9390     4.9460 hc         1 2HS       0.041200
     32 H11          4.6560     0.3600     6.2950 hc         1 2HS       0.041700
     33 H12A         3.3810     0.2340     7.4810 hc         1 2HS       0.041700
     34 H71          1.2310    -1.9660     7.4800 h1         1 2HS       0.015700
     35 H72          0.8960    -0.2470     7.6940 h1         1 2HS       0.015700
     36 H8          -1.1070    -1.5240     7.9690 hc         1 2HS       0.024700
     37 H91         -2.5910    -0.2800     6.4610 hc         1 2HS       0.026700
     38 H92         -1.2460     0.7610     6.9190 hc         1 2HS       0.026700
     39 H93         -1.2770     0.0080     5.3250 hc         1 2HS       0.026700
     40 H101        -0.6930    -2.5100     5.1170 hc         1 2HS       0.047700
     41 H102        -2.1920    -2.6680     6.0050 hc         1 2HS       0.047700
     42 H16          1.3200    -3.8630     5.8380 ha         1 2HS       0.147500
     43 H15          2.0810    -5.9440     6.8940 ha         1 2HS       0.122000
     44 H14          0.5900    -7.1820     8.4380 ha         1 2HS       0.112000
     45 H13         -1.6810    -6.3080     8.9030 ha         1 2HS       0.122000
     46 H12         -2.4520    -4.2340     7.8270 ha         1 2HS       0.147500
@<TRIPOS>BOND
     1     1     2 1   
     2     1    21 1   
     3     1    22 1   
     4     1    23 1   
     5     2     3 1   
     6     2    24 1   
     7     2    25 1   
     8     3     4 1   
     9     3    26 1   
    10     3    27 1   
    11     4     5 1   
    12     4    28 1   
    13     4    29 1   
    14     5     6 1   
    15     5    30 1   
    16     5    31 1   
    17     6     7 1   
    18     6    32 1   
    19     6    33 1   
    20     7     8 1   
    21     7     9 1   
    22     7    20 1   
    23     9    10 1   
    24    10    11 1   
    25    10    34 1   
    26    10    35 1   
    27    11    12 1   
    28    11    13 1   
    29    11    36 1   
    30    12    37 1   
    31    12    38 1   
    32    12    39 1   
    33    13    14 1   
    34    13    40 1   
    35    13    41 1   
    36    14    15 ar  
    37    14    19 ar  
    38    15    16 ar  
    39    15    42 1   
    40    16    17 ar  
    41    16    43 1   
    42    17    18 ar  
    43    17    44 1   
    44    18    19 ar  
    45    18    45 1   
    46    19    46 1   
@<TRIPOS>SUBSTRUCTURE
     1 2HS         1 TEMP              0 ****  ****    0 ROOT
