@<TRIPOS>MOLECULE
2HT
   16    16     1     0     0
SMALL
No Charge or Current Charge


@<TRIPOS>ATOM
      1 C24          1.4810     0.4760     0.0060 ca         1 2HT      -0.077300
      2 C26          0.7730    -1.8580     0.0090 ca         1 2HT      -0.111000
      3 C28         -0.8990    -0.0850     0.0280 ca         1 2HT      -0.016000
      4 N30         -3.3900     0.6770     0.0570 n1         1 2HT      -0.454000
      5 C29         -2.2750     0.3310     0.0420 cg         1 2HT       0.324000
      6 C27         -0.5730    -1.4550     0.0210 ca         1 2HT      -0.076000
      7 C25          1.7970    -0.8960     0.0020 ca         1 2HT      -0.090000
      8 C31          0.1310     0.8770     0.0210 ca         1 2HT      -0.074000
      9 C23          2.5890     1.5180     0.0030 c3         1 2HT      -0.048800
     10 H26          1.0230    -2.9170     0.0050 ha         1 2HT       0.120000
     11 H27         -1.3610    -2.2070     0.0260 ha         1 2HT       0.126000
     12 H25          2.8360    -1.2180    -0.0050 ha         1 2HT       0.115000
     13 H31         -0.1170     1.9370     0.0280 ha         1 2HT       0.124000
     14 H23          2.8570     1.8070     1.0260 hc         1 2HT       0.046367
     15 H23A         3.4950     1.1390    -0.4850 hc         1 2HT       0.046367
     16 H23B         2.2840     2.4250    -0.5330 hc         1 2HT       0.046367
@<TRIPOS>BOND
     1     1     7 ar  
     2     1     8 ar  
     3     1     9 1   
     4     2     6 ar  
     5     2     7 ar  
     6     2    10 1   
     7     3     5 1   
     8     3     6 ar  
     9     3     8 ar  
    10     4     5 3   
    11     6    11 1   
    12     7    12 1   
    13     8    13 1   
    14     9    14 1   
    15     9    15 1   
    16     9    16 1   
@<TRIPOS>SUBSTRUCTURE
     1 2HT         1 TEMP              0 ****  ****    0 ROOT
