@<TRIPOS>MOLECULE
2HT
   16    16     1     0     0
SMALL
bcc


@<TRIPOS>ATOM
      1 C24          1.4780     0.4820    -0.0030 ca         1 2HT      -0.077300
      2 C26          0.7640    -1.8380     0.0190 ca         1 2HT      -0.129000
      3 C28         -0.8690    -0.0910     0.0270 ca         1 2HT      -0.016000
      4 N30         -3.3370     0.6610     0.0410 n1         1 2HT      -0.364800
      5 C29         -2.2340     0.3270     0.0350 cg         1 2HT       0.234800
      6 C27         -0.5660    -1.4520     0.0330 ca         1 2HT      -0.094000
      7 C25          1.7700    -0.8820     0.0000 ca         1 2HT      -0.108000
      8 C31          0.1430     0.8680     0.0090 ca         1 2HT      -0.092000
      9 C23          2.5720     1.5080     0.0040 c3         1 2HT      -0.048800
     10 H26          1.0160    -2.8890     0.0190 ha         1 2HT       0.138000
     11 H27         -1.3570    -2.1890     0.0440 ha         1 2HT       0.144000
     12 H25          2.8050    -1.2030    -0.0160 ha         1 2HT       0.133000
     13 H31         -0.1160     1.9200     0.0010 ha         1 2HT       0.142000
     14 H23          2.8680     1.7500     1.0260 hc         1 2HT       0.046367
     15 H23A         3.4590     1.1460    -0.5150 hc         1 2HT       0.046367
     16 H23B         2.2540     2.4340    -0.4730 hc         1 2HT       0.046367
@<TRIPOS>BOND
     1     1     7 ar  
     2     1     8 ar  
     3     1     9 1   
     4     2     6 ar  
     5     2     7 ar  
     6     2    10 1   
     7     3     5 1   
     8     3     6 ar  
     9     3     8 ar  
    10     4     5 3   
    11     6    11 1   
    12     7    12 1   
    13     8    13 1   
    14     9    14 1   
    15     9    15 1   
    16     9    16 1   
@<TRIPOS>SUBSTRUCTURE
     1 2HT         1 TEMP              0 ****  ****    0 ROOT
