@<TRIPOS>MOLECULE
2HU
   18    19     1     0     0
SMALL
No Charge or Current Charge


@<TRIPOS>ATOM
      1 O1           3.4190    -0.7050    -0.0200 o          1 2HU      -0.409000
      2 N2           2.6180     0.2390    -0.0150 no         1 2HU       0.698200
      3 O3           2.9610     1.4280    -0.0190 o          1 2HU      -0.409000
      4 C4           1.1550    -0.0750    -0.0050 ca         1 2HU      -0.217200
      5 C5           0.7060    -1.4290    -0.0010 ca         1 2HU      -0.036000
      6 C6          -0.6740    -1.7300     0.0090 ca         1 2HU      -0.138000
      7 C7          -1.5800    -0.6640     0.0140 ca         1 2HU      -0.015200
      8 N8          -2.9660    -0.6920     0.0240 na         1 2HU      -0.214700
      9 C9          -3.4790     0.6250     0.0260 cc         1 2HU      -0.161100
     10 C10         -2.3500     1.4330     0.0170 cd         1 2HU      -0.217200
     11 C11         -1.1530     0.6310     0.0100 ca         1 2HU      -0.124800
     12 C12          0.2030     0.9800     0.0000 ca         1 2HU       0.024000
     13 H5           1.4200    -2.2510    -0.0050 ha         1 2HU       0.149000
     14 H6          -1.0210    -2.7610     0.0120 ha         1 2HU       0.127000
     15 HN8         -3.5260    -1.5400     0.0280 hn         1 2HU       0.357000
     16 H9          -4.5410     0.8610     0.0330 h4         1 2HU       0.220000
     17 H10         -2.3740     2.5220     0.0160 ha         1 2HU       0.215000
     18 H12          0.5000     2.0270    -0.0030 ha         1 2HU       0.153000
@<TRIPOS>BOND
     1     1     2 1   
     2     2     3 1   
     3     2     4 1   
     4     4     5 ar  
     5     4    12 ar  
     6     5     6 ar  
     7     5    13 1   
     8     6     7 ar  
     9     6    14 1   
    10     7     8 1   
    11     7    11 ar  
    12     8     9 1   
    13     8    15 1   
    14     9    10 2   
    15     9    16 1   
    16    10    11 1   
    17    10    17 1   
    18    11    12 ar  
    19    12    18 1   
@<TRIPOS>SUBSTRUCTURE
     1 2HU         1 TEMP              0 ****  ****    0 ROOT
