@<TRIPOS>MOLECULE
2HU
   18    19     1     0     0
SMALL
abcg2


@<TRIPOS>ATOM
      1 O1           3.2980    -0.7090    -0.0160 o          1 2HU      -0.409000
      2 N2           2.5180     0.2180    -0.0140 no         1 2HU       0.698200
      3 O3           2.8660     1.3780    -0.0190 o          1 2HU      -0.409000
      4 C4           1.1020    -0.0760    -0.0050 ca         1 2HU      -0.217200
      5 C5           0.6910    -1.4210    -0.0010 ca         1 2HU      -0.036000
      6 C6          -0.6490    -1.7310     0.0080 ca         1 2HU      -0.138000
      7 C7          -1.5640    -0.6770     0.0130 ca         1 2HU      -0.015200
      8 N8          -2.9180    -0.6850     0.0230 na         1 2HU      -0.214700
      9 C9          -3.3850     0.6030     0.0260 cc         1 2HU      -0.161100
     10 C10         -2.3380     1.4740     0.0170 cd         1 2HU      -0.217200
     11 C11         -1.1510     0.6780     0.0090 ca         1 2HU      -0.124800
     12 C12          0.2060     0.9800    -0.0000 ca         1 2HU       0.024000
     13 H5           1.4200    -2.2160    -0.0060 ha         1 2HU       0.149000
     14 H6          -0.9740    -2.7630     0.0110 ha         1 2HU       0.127000
     15 HN8         -3.5000    -1.5070     0.0300 hn         1 2HU       0.357000
     16 H9          -4.4450     0.7960     0.0330 h4         1 2HU       0.220000
     17 H10         -2.4020     2.5500     0.0170 ha         1 2HU       0.215000
     18 H12          0.5420     2.0070    -0.0040 ha         1 2HU       0.153000
@<TRIPOS>BOND
     1     1     2 1   
     2     2     3 1   
     3     2     4 1   
     4     4     5 ar  
     5     4    12 ar  
     6     5     6 ar  
     7     5    13 1   
     8     6     7 ar  
     9     6    14 1   
    10     7     8 1   
    11     7    11 ar  
    12     8     9 1   
    13     8    15 1   
    14     9    10 2   
    15     9    16 1   
    16    10    11 1   
    17    10    17 1   
    18    11    12 ar  
    19    12    18 1   
@<TRIPOS>SUBSTRUCTURE
     1 2HU         1 TEMP              0 ****  ****    0 ROOT
