@<TRIPOS>MOLECULE
2HV
   44    46     1     0     0
SMALL
No Charge or Current Charge


@<TRIPOS>ATOM
      1 O1          -0.0910    -3.4490     0.3020 o          1 2HV      -0.591100
      2 C5           0.0130    -2.2290     0.1740 c          1 2HV       0.540600
      3 C3           1.3200    -1.4840     0.2190 cc         1 2HV       0.239500
      4 N1           1.4400    -0.1120     0.0720 nc         1 2HV      -0.711000
      5 C4           2.5060    -2.1560     0.4170 cd         1 2HV      -0.245000
      6 S            3.8660    -1.0490     0.4290 ss         1 2HV       0.085600
      7 C2           2.7030     0.2570     0.1580 cd         1 2HV       0.534300
      8 N            3.0070     1.5830     0.0360 ns         1 2HV      -0.475400
      9 C1           4.2300     2.1990     0.0960 c          1 2HV       0.607100
     10 O            5.2800     1.6060     0.2790 o          1 2HV      -0.568100
     11 C            4.1810     3.7100    -0.0860 c3         1 2HV      -0.173100
     12 N2          -1.0620    -1.3750    -0.0240 ns         1 2HV      -0.128000
     13 C6          -2.4640    -1.5870    -0.1570 ca         1 2HV      -0.013000
     14 C11         -3.2940    -0.4420    -0.2410 ca         1 2HV       0.192000
     15 C10         -4.6850    -0.6000    -0.3970 ca         1 2HV      -0.118000
     16 C9          -5.2550    -1.8810    -0.4710 ca         1 2HV      -0.129000
     17 C8          -4.4350    -3.0160    -0.3900 ca         1 2HV      -0.093000
     18 C7          -3.0460    -2.8730    -0.2360 ca         1 2HV      -0.130000
     19 N3          -2.7340     0.8560    -0.1580 nh         1 2HV      -0.791400
     20 C16         -3.1060     1.8920    -1.1610 c6         1 2HV       0.187800
     21 C15         -1.9900     2.9570    -1.2950 c6         1 2HV      -0.079400
     22 C14         -1.6510     3.5880     0.0760 c6         1 2HV      -0.075400
     23 C13         -1.3000     2.4820     1.1000 c6         1 2HV      -0.079400
     24 C12         -2.4220     1.4170     1.1860 c6         1 2HV       0.187800
     25 H4           2.6560    -3.2190     0.5560 h4         1 2HV       0.179000
     26 H3           2.2290     2.2040    -0.1210 hn         1 2HV       0.340500
     27 H1           3.4940     4.1370     0.6540 hc         1 2HV       0.071367
     28 H2           5.1720     4.1720    -0.0320 hc         1 2HV       0.071367
     29 H            3.6780     3.9400    -1.0320 hc         1 2HV       0.071367
     30 H5          -0.8000    -0.3980    -0.0890 hn         1 2HV       0.200000
     31 H9          -5.3280     0.2740    -0.4530 ha         1 2HV       0.111000
     32 H8          -6.3310    -1.9930    -0.5900 ha         1 2HV       0.113000
     33 H7          -4.8750    -4.0090    -0.4500 ha         1 2HV       0.114000
     34 H6          -2.4400    -3.7720    -0.1880 ha         1 2HV       0.145000
     35 H18         -3.2720     1.4260    -2.1440 h1         1 2HV       0.037200
     36 H19         -4.0440     2.3840    -0.8650 h1         1 2HV       0.037200
     37 H16         -1.0900     2.4910    -1.7210 hc         1 2HV       0.046700
     38 H17         -2.3040     3.7370    -2.0010 hc         1 2HV       0.046700
     39 H14         -0.8110     4.2890    -0.0260 hc         1 2HV       0.037200
     40 H15         -2.5090     4.1710     0.4390 hc         1 2HV       0.037200
     41 H12         -0.3590     1.9980     0.8120 hc         1 2HV       0.046700
     42 H13         -1.1330     2.9250     2.0910 hc         1 2HV       0.046700
     43 H11         -3.3250     1.8740     1.6180 h1         1 2HV       0.037200
     44 H10         -2.1000     0.6170     1.8690 h1         1 2HV       0.037200
@<TRIPOS>BOND
     1     1     2 2   
     2     2     3 1   
     3     2    12 1   
     4     3     4 1   
     5     3     5 2   
     6     4     7 2   
     7     5     6 1   
     8     5    25 1   
     9     6     7 1   
    10     7     8 1   
    11     8     9 1   
    12     8    26 1   
    13     9    10 2   
    14     9    11 1   
    15    11    27 1   
    16    11    28 1   
    17    11    29 1   
    18    12    13 1   
    19    12    30 1   
    20    13    14 ar  
    21    13    18 ar  
    22    14    15 ar  
    23    14    19 1   
    24    15    16 ar  
    25    15    31 1   
    26    16    17 ar  
    27    16    32 1   
    28    17    18 ar  
    29    17    33 1   
    30    18    34 1   
    31    19    20 1   
    32    19    24 1   
    33    20    21 1   
    34    20    35 1   
    35    20    36 1   
    36    21    22 1   
    37    21    37 1   
    38    21    38 1   
    39    22    23 1   
    40    22    39 1   
    41    22    40 1   
    42    23    24 1   
    43    23    41 1   
    44    23    42 1   
    45    24    43 1   
    46    24    44 1   
@<TRIPOS>SUBSTRUCTURE
     1 2HV         1 TEMP              0 ****  ****    0 ROOT
