@<TRIPOS>MOLECULE
2HV
   44    46     1     0     0
SMALL
bcc


@<TRIPOS>ATOM
      1 O1          -0.1430    -3.2930     0.5650 o          1 2HV      -0.591100
      2 C5          -0.0300    -2.1140     0.2700 c          1 2HV       0.607600
      3 C3           1.2860    -1.4300     0.3140 cc         1 2HV       0.304800
      4 N1           1.3860    -0.0990     0.0140 nc         1 2HV      -0.711000
      5 C4           2.4460    -2.0410     0.6590 cd         1 2HV      -0.183400
      6 S            3.7410    -0.9140     0.6180 ss         1 2HV      -0.059300
      7 C2           2.6070     0.3060     0.1320 cd         1 2HV       0.534300
      8 N            2.9640     1.6060    -0.1070 ns         1 2HV      -0.542400
      9 C1           4.2330     2.0940     0.0310 c          1 2HV       0.674100
     10 O            5.1440     1.3590     0.3600 o          1 2HV      -0.568100
     11 C            4.3750     3.5640    -0.2160 c3         1 2HV      -0.173100
     12 N2          -1.0360    -1.2990    -0.1090 ns         1 2HV      -0.454100
     13 C6          -2.4000    -1.5610    -0.2180 ca         1 2HV       0.079600
     14 C11         -3.2270    -0.4230    -0.3230 ca         1 2HV       0.053600
     15 C10         -4.5920    -0.5940    -0.5050 ca         1 2HV      -0.136000
     16 C9          -5.1490    -1.8650    -0.5710 ca         1 2HV      -0.147000
     17 C8          -4.3320    -2.9770    -0.4440 ca         1 2HV      -0.111000
     18 C7          -2.9620    -2.8340    -0.2700 ca         1 2HV      -0.148000
     19 N3          -2.6000     0.8400    -0.2510 nh         1 2HV      -0.653000
     20 C16         -3.1460     1.8860    -1.1020 c6         1 2HV       0.187800
     21 C15         -2.1660     3.0470    -1.1840 c6         1 2HV      -0.079400
     22 C14         -1.8400     3.5820     0.2060 c6         1 2HV      -0.075400
     23 C13         -1.3660     2.4550     1.1150 c6         1 2HV      -0.079400
     24 C12         -2.3640     1.3080     1.1160 c6         1 2HV       0.187800
     25 H4           2.6060    -3.0710     0.9330 h4         1 2HV       0.197000
     26 H3           2.2150     2.2240    -0.3860 hn         1 2HV       0.340500
     27 H1           4.1050     4.1060     0.6930 hc         1 2HV       0.071367
     28 H2           5.4060     3.8050    -0.4630 hc         1 2HV       0.071367
     29 H            3.7220     3.9130    -1.0140 hc         1 2HV       0.071367
     30 H5          -0.7970    -0.3310    -0.3060 hn         1 2HV       0.366500
     31 H9          -5.2320     0.2750    -0.5900 ha         1 2HV       0.129000
     32 H8          -6.2160    -1.9810    -0.7100 ha         1 2HV       0.131000
     33 H7          -4.7560    -3.9720    -0.4900 ha         1 2HV       0.132000
     34 H6          -2.3390    -3.7110    -0.1950 ha         1 2HV       0.163000
     35 H18         -3.3270     1.4700    -2.0940 h1         1 2HV       0.037200
     36 H19         -4.1120     2.2590    -0.7260 h1         1 2HV       0.037200
     37 H16         -1.2500     2.7070    -1.6770 hc         1 2HV       0.046700
     38 H17         -2.5940     3.8340    -1.8090 hc         1 2HV       0.046700
     39 H14         -1.0860     4.3700     0.1450 hc         1 2HV       0.037200
     40 H15         -2.7380     4.0390     0.6360 hc         1 2HV       0.037200
     41 H12         -0.3970     2.0800     0.7720 hc         1 2HV       0.046700
     42 H13         -1.2280     2.8140     2.1370 hc         1 2HV       0.046700
     43 H11         -3.3080     1.6320     1.5810 h1         1 2HV       0.037200
     44 H10         -1.9850     0.4790     1.7170 h1         1 2HV       0.037200
@<TRIPOS>BOND
     1     1     2 2   
     2     2     3 1   
     3     2    12 1   
     4     3     4 1   
     5     3     5 2   
     6     4     7 2   
     7     5     6 1   
     8     5    25 1   
     9     6     7 1   
    10     7     8 1   
    11     8     9 1   
    12     8    26 1   
    13     9    10 2   
    14     9    11 1   
    15    11    27 1   
    16    11    28 1   
    17    11    29 1   
    18    12    13 1   
    19    12    30 1   
    20    13    14 ar  
    21    13    18 ar  
    22    14    15 ar  
    23    14    19 1   
    24    15    16 ar  
    25    15    31 1   
    26    16    17 ar  
    27    16    32 1   
    28    17    18 ar  
    29    17    33 1   
    30    18    34 1   
    31    19    20 1   
    32    19    24 1   
    33    20    21 1   
    34    20    35 1   
    35    20    36 1   
    36    21    22 1   
    37    21    37 1   
    38    21    38 1   
    39    22    23 1   
    40    22    39 1   
    41    22    40 1   
    42    23    24 1   
    43    23    41 1   
    44    23    42 1   
    45    24    43 1   
    46    24    44 1   
@<TRIPOS>SUBSTRUCTURE
     1 2HV         1 TEMP              0 ****  ****    0 ROOT
