@<TRIPOS>MOLECULE
2HW
   42    44     1     0     0
SMALL
No Charge or Current Charge


@<TRIPOS>ATOM
      1 O            2.3990    -2.0540    -0.0330 o          1 2HW      -0.626100
      2 C10          1.7840    -0.9910     0.0410 c          1 2HW       0.531600
      3 C11          2.4720     0.3600     0.1680 ca         1 2HW       0.143500
      4 C14          3.8990     0.4370     0.3050 ca         1 2HW       0.639900
      5 N6           4.7730    -0.5840     0.3730 nv         1 2HW      -1.057900
      6 N5           4.5810     1.5840     0.3900 nb         1 2HW      -0.746000
      7 C13          3.8170     2.7120     0.3520 ca         1 2HW       0.379900
      8 C12          2.4010     2.6740     0.2290 ca         1 2HW       0.202900
      9 N4           1.7090     1.5060     0.1330 nb         1 2HW      -0.608000
     10 N3           0.3980    -0.9210     0.0040 ns         1 2HW      -0.118000
     11 C9          -0.6170    -1.9170    -0.1140 ca         1 2HW      -0.092000
     12 C8          -0.3470    -3.2900    -0.3090 ca         1 2HW       0.335900
     13 N2          -1.3160    -4.2270    -0.4390 nb         1 2HW      -0.660000
     14 C7          -2.6010    -3.8200    -0.3790 ca         1 2HW       0.329900
     15 C6          -2.9650    -2.4830    -0.1920 ca         1 2HW      -0.191000
     16 C5          -1.9650    -1.5120    -0.0550 ca         1 2HW       0.261000
     17 N1          -2.3040    -0.1550     0.1440 nh         1 2HW      -0.796400
     18 C3          -2.2110     0.4220     1.5130 c6         1 2HW       0.189800
     19 C2          -1.9990     1.9550     1.4560 c6         1 2HW      -0.080400
     20 C1          -3.1080     2.6510     0.6280 c6         1 2HW      -0.077400
     21 C4          -3.3700     0.4750    -0.6940 c6         1 2HW       0.190800
     22 C           -3.1920     2.0290    -0.7880 c6         1 2HW       0.157500
     23 N           -4.2720     2.6820    -1.5720 n8         1 2HW      -1.000200
     24 H18          4.4240    -1.4960     0.0840 hn         1 2HW       0.520000
     25 H17          5.7340    -0.3570     0.1440 hn         1 2HW       0.520000
     26 H16          4.3430     3.6630     0.4230 h4         1 2HW       0.028100
     27 H15          1.8190     3.5940     0.2040 h4         1 2HW       0.034100
     28 H14          0.0320     0.0230     0.0690 hn         1 2HW       0.198000
     29 H13          0.6680    -3.6740    -0.3730 h4         1 2HW       0.043100
     30 H12         -3.3610    -4.5940    -0.4840 h4         1 2HW       0.019100
     31 H11         -4.0150    -2.2140    -0.1440 ha         1 2HW       0.125000
     32 H7          -3.1320     0.2030     2.0740 h1         1 2HW       0.043200
     33 H8          -1.3760    -0.0310     2.0660 h1         1 2HW       0.043200
     34 H5          -1.9800     2.3640     2.4750 hc         1 2HW       0.052200
     35 H6          -1.0170     2.1720     1.0140 hc         1 2HW       0.052200
     36 H4          -4.0730     2.5440     1.1430 hc         1 2HW       0.047700
     37 H3          -2.9000     3.7270     0.5600 hc         1 2HW       0.047700
     38 H10         -3.3450     0.0550    -1.7100 h1         1 2HW       0.045700
     39 H9          -4.3590     0.2510    -0.2680 h1         1 2HW       0.045700
     40 H           -2.2460     2.2350    -1.3130 h1         1 2HW       0.030700
     41 H1          -4.0690     3.6870    -1.6340 hn         1 2HW       0.396000
     42 H2          -4.2090     2.3670    -2.5470 hn         1 2HW       0.396000
@<TRIPOS>BOND
     1     1     2 2   
     2     2     3 1   
     3     2    10 1   
     4     3     4 ar  
     5     3     9 ar  
     6     4     5 1   
     7     4     6 ar  
     8     5    24 1   
     9     5    25 1   
    10     6     7 ar  
    11     7     8 ar  
    12     7    26 1   
    13     8     9 ar  
    14     8    27 1   
    15    10    11 1   
    16    10    28 1   
    17    11    12 ar  
    18    11    16 ar  
    19    12    13 ar  
    20    12    29 1   
    21    13    14 ar  
    22    14    15 ar  
    23    14    30 1   
    24    15    16 ar  
    25    15    31 1   
    26    16    17 1   
    27    17    18 1   
    28    17    21 1   
    29    18    19 1   
    30    18    32 1   
    31    18    33 1   
    32    19    20 1   
    33    19    34 1   
    34    19    35 1   
    35    20    22 1   
    36    20    36 1   
    37    20    37 1   
    38    21    22 1   
    39    21    38 1   
    40    21    39 1   
    41    22    23 1   
    42    22    40 1   
    43    23    41 1   
    44    23    42 1   
@<TRIPOS>SUBSTRUCTURE
     1 2HW         1 TEMP              0 ****  ****    0 ROOT
