@<TRIPOS>MOLECULE
2HW
   42    44     1     0     0
SMALL
bcc


@<TRIPOS>ATOM
      1 O            2.1900    -2.0260     0.5770 o          1 2HW      -0.626100
      2 C10          1.7000    -0.9770     0.1770 c          1 2HW       0.598600
      3 C11          2.4550     0.3050     0.1700 ca         1 2HW       0.143500
      4 C14          3.8080     0.3990     0.5990 ca         1 2HW       0.639900
      5 N6           4.5250    -0.6350     1.0440 nv         1 2HW      -0.947500
      6 N5           4.4230     1.5910     0.5670 nb         1 2HW      -0.746000
      7 C13          3.7440     2.6360     0.1440 ca         1 2HW       0.379900
      8 C12          2.4180     2.5480    -0.2690 ca         1 2HW       0.202900
      9 N4           1.8070     1.3800    -0.2460 nb         1 2HW      -0.608000
     10 N3           0.4380    -0.8600    -0.2850 ns         1 2HW      -0.444100
     11 C9          -0.5590    -1.8310    -0.3270 ca         1 2HW      -0.064700
     12 C8          -0.3160    -3.1860    -0.5250 ca         1 2HW       0.401200
     13 N2          -1.2800    -4.0910    -0.6510 nb         1 2HW      -0.660000
     14 C7          -2.5360    -3.6700    -0.6080 ca         1 2HW       0.395200
     15 C6          -2.8910    -2.3450    -0.4140 ca         1 2HW      -0.274300
     16 C5          -1.8950    -1.3900    -0.2460 ca         1 2HW       0.122600
     17 N1          -2.1450    -0.0320    -0.0470 nh         1 2HW      -0.658000
     18 C3          -1.8250     0.4770     1.2900 c6         1 2HW       0.189800
     19 C2          -1.7170     1.9910     1.2620 c6         1 2HW      -0.080400
     20 C1          -2.9910     2.6110     0.7030 c6         1 2HW      -0.077400
     21 C4          -3.4120     0.4860    -0.5310 c6         1 2HW       0.190800
     22 C           -3.3440     2.0060    -0.6490 c6         1 2HW       0.157500
     23 N           -4.6370     2.4970    -1.0980 n8         1 2HW      -0.889800
     24 H18          4.1340    -1.5610     1.0720 hn         1 2HW       0.464800
     25 H17          5.4880    -0.4900     1.2960 hn         1 2HW       0.464800
     26 H16          4.2620     3.5880     0.1300 h4         1 2HW       0.028100
     27 H15          1.8680     3.4130    -0.6120 h4         1 2HW       0.034100
     28 H14          0.1440     0.0800    -0.5310 hn         1 2HW       0.364500
     29 H13          0.6990    -3.5510    -0.6050 h4         1 2HW       0.043100
     30 H12         -3.3080    -4.4220    -0.7280 h4         1 2HW       0.019100
     31 H11         -3.9370    -2.0720    -0.3760 ha         1 2HW       0.143000
     32 H7          -2.6090     0.1740     2.0000 h1         1 2HW       0.043200
     33 H8          -0.8930     0.0350     1.6420 h1         1 2HW       0.043200
     34 H5          -1.5300     2.3520     2.2750 hc         1 2HW       0.052200
     35 H6          -0.8530     2.2810     0.6560 hc         1 2HW       0.052200
     36 H4          -3.8220     2.4310     1.3940 hc         1 2HW       0.047700
     37 H3          -2.8800     3.6950     0.6130 hc         1 2HW       0.047700
     38 H10         -3.6200     0.0500    -1.5110 h1         1 2HW       0.045700
     39 H9          -4.2490     0.2230     0.1340 h1         1 2HW       0.045700
     40 H           -2.5290     2.2410    -1.3520 h1         1 2HW       0.030700
     41 H1          -4.6150     3.5090    -1.1360 hn         1 2HW       0.340800
     42 H2          -4.8020     2.1950    -2.0510 hn         1 2HW       0.340800
@<TRIPOS>BOND
     1     1     2 2   
     2     2     3 1   
     3     2    10 1   
     4     3     4 ar  
     5     3     9 ar  
     6     4     5 1   
     7     4     6 ar  
     8     5    24 1   
     9     5    25 1   
    10     6     7 ar  
    11     7     8 ar  
    12     7    26 1   
    13     8     9 ar  
    14     8    27 1   
    15    10    11 1   
    16    10    28 1   
    17    11    12 ar  
    18    11    16 ar  
    19    12    13 ar  
    20    12    29 1   
    21    13    14 ar  
    22    14    15 ar  
    23    14    30 1   
    24    15    16 ar  
    25    15    31 1   
    26    16    17 1   
    27    17    18 1   
    28    17    21 1   
    29    18    19 1   
    30    18    32 1   
    31    18    33 1   
    32    19    20 1   
    33    19    34 1   
    34    19    35 1   
    35    20    22 1   
    36    20    36 1   
    37    20    37 1   
    38    21    22 1   
    39    21    38 1   
    40    21    39 1   
    41    22    23 1   
    42    22    40 1   
    43    23    41 1   
    44    23    42 1   
@<TRIPOS>SUBSTRUCTURE
     1 2HW         1 TEMP              0 ****  ****    0 ROOT
