@<TRIPOS>MOLECULE
2HX
   55    58     1     0     0
SMALL
abcg2


@<TRIPOS>ATOM
      1 C1         -19.2020    36.8410    -4.6220 c6         1 2HX      -0.111700
      2 C2         -18.4760    35.7140    -3.8940 c6         1 2HX       0.196800
      3 N3         -17.0540    36.0420    -3.7110 nh         1 2HX      -0.794400
      4 C4         -16.3890    36.2030    -4.9980 c6         1 2HX       0.154800
      5 C5         -17.0310    37.3350    -5.8100 c6         1 2HX       0.157500
      6 C6         -18.5310    37.1010    -5.9760 c6         1 2HX       0.184300
      7 C7         -16.3700    35.3500    -2.7080 ca         1 2HX       0.268000
      8 C8         -15.2990    34.4920    -2.9520 ca         1 2HX      -0.194000
      9 C9         -14.6650    33.8640    -1.8890 ca         1 2HX       0.328900
     10 N10        -15.0190    34.0340    -0.6130 nb         1 2HX      -0.655000
     11 C11        -16.0270    34.8770    -0.3600 ca         1 2HX       0.331900
     12 C12        -16.7230    35.5590    -1.3530 ca         1 2HX      -0.092000
     13 N13        -17.7050    36.5140    -1.0850 ns         1 2HX      -0.124000
     14 C14        -20.6860    36.5050    -4.7500 c3         1 2HX      -0.091100
     15 C15        -18.5060    36.6460    -0.0030 c          1 2HX       0.513600
     16 C16        -19.5070    37.7590    -0.1560 ca         1 2HX       0.273500
     17 O17        -18.4640    35.9470     1.0050 o          1 2HX      -0.586100
     18 C18        -20.3610    38.0870     0.8910 ca         1 2HX      -0.069000
     19 C19        -21.2700    39.1170     0.7030 ca         1 2HX      -0.123000
     20 C20        -21.2770    39.7520    -0.5230 ca         1 2HX       0.162000
     21 C21        -20.4080    39.3680    -1.5440 cp         1 2HX       0.383500
     22 N22        -19.5380    38.3850    -1.3330 nb         1 2HX      -0.649000
     23 C23        -20.4160    40.0190    -2.8730 cp         1 2HX      -0.234500
     24 F24        -22.1250    40.7730    -0.7330 f          1 2HX      -0.156000
     25 N25        -16.3860    37.5030    -7.1140 n8         1 2HX      -0.976200
     26 C26        -21.5400    40.0200    -3.6950 ca         1 2HX       0.219000
     27 C27        -21.5650    40.5970    -4.9490 ca         1 2HX      -0.167000
     28 C28        -20.4110    41.2160    -5.4130 ca         1 2HX      -0.036000
     29 C29        -19.2580    41.2460    -4.6370 ca         1 2HX      -0.167000
     30 C30        -19.2860    40.6450    -3.3950 ca         1 2HX       0.219000
     31 F31        -18.1680    40.6730    -2.6380 f          1 2HX      -0.168000
     32 F32        -22.6520    39.3970    -3.2460 f          1 2HX      -0.168000
     33 O33        -19.0770    38.2450    -6.6340 oh         1 2HX      -0.646000
     34 H1         -19.0940    37.7490    -4.0240 hc         1 2HX       0.079700
     35 H2         -18.9430    35.5390    -2.9280 h1         1 2HX       0.046700
     36 H3         -18.5620    34.7810    -4.4700 h1         1 2HX       0.046700
     37 H4         -16.4270    35.2750    -5.5890 h1         1 2HX       0.039200
     38 H5         -15.3410    36.4480    -4.8290 h1         1 2HX       0.039200
     39 H6         -16.9070    38.2670    -5.2520 h1         1 2HX       0.085700
     40 H7         -18.6740    36.2130    -6.6110 h1         1 2HX       0.028700
     41 H8         -14.9700    34.2940    -3.9620 ha         1 2HX       0.121000
     42 H9         -13.8400    33.1870    -2.0790 h4         1 2HX       0.020100
     43 H10        -16.2890    35.0360     0.6760 h4         1 2HX       0.048100
     44 H11        -17.9030    37.1690    -1.8350 hn         1 2HX       0.198000
     45 H12        -21.1220    36.3450    -3.7620 hc         1 2HX       0.039367
     46 H13        -21.2540    37.3100    -5.2190 hc         1 2HX       0.039367
     47 H14        -20.8320    35.5970    -5.3400 hc         1 2HX       0.039367
     48 H15        -20.3070    37.5500     1.8270 ha         1 2HX       0.157000
     49 H16        -21.9530    39.4310     1.4810 ha         1 2HX       0.148000
     50 H17        -15.3950    37.6840    -6.9840 hn         1 2HX       0.393000
     51 H18        -16.4500    36.6350    -7.6400 hn         1 2HX       0.393000
     52 H20        -22.4680    40.5530    -5.5410 ha         1 2HX       0.143500
     53 H21        -20.4070    41.6720    -6.3940 ha         1 2HX       0.131000
     54 H22        -18.3500    41.7180    -4.9840 ha         1 2HX       0.143500
     55 H23        -20.0370    38.2330    -6.5400 ho         1 2HX       0.437000
@<TRIPOS>BOND
     1     1     2 1   
     2     1     6 1   
     3     1    14 1   
     4     1    34 1   
     5     2     3 1   
     6     2    35 1   
     7     2    36 1   
     8     3     4 1   
     9     3     7 1   
    10     4     5 1   
    11     4    37 1   
    12     4    38 1   
    13     5     6 1   
    14     5    25 1   
    15     5    39 1   
    16     6    33 1   
    17     6    40 1   
    18     7     8 ar  
    19     7    12 ar  
    20     8     9 ar  
    21     8    41 1   
    22     9    10 ar  
    23     9    42 1   
    24    10    11 ar  
    25    11    12 ar  
    26    11    43 1   
    27    12    13 1   
    28    13    15 1   
    29    13    44 1   
    30    14    45 1   
    31    14    46 1   
    32    14    47 1   
    33    15    16 1   
    34    15    17 2   
    35    16    18 ar  
    36    16    22 ar  
    37    18    19 ar  
    38    18    48 1   
    39    19    20 ar  
    40    19    49 1   
    41    20    21 ar  
    42    20    24 1   
    43    21    22 ar  
    44    21    23 1   
    45    23    26 ar  
    46    23    30 ar  
    47    25    50 1   
    48    25    51 1   
    49    26    27 ar  
    50    26    32 1   
    51    27    28 ar  
    52    27    52 1   
    53    28    29 ar  
    54    28    53 1   
    55    29    30 ar  
    56    29    54 1   
    57    30    31 1   
    58    33    55 1   
@<TRIPOS>SUBSTRUCTURE
     1 2HX         1 TEMP              0 ****  ****    0 ROOT
