@<TRIPOS>MOLECULE
2HX
   55    58     1     0     0
SMALL
No Charge or Current Charge


@<TRIPOS>ATOM
      1 C1         -19.0300    36.9270    -4.8010 c6         1 2HX      -0.111700
      2 C2         -18.4340    35.6690    -4.1180 c6         1 2HX       0.196800
      3 N3         -17.0110    35.8820    -3.7390 nh         1 2HX      -0.794400
      4 C4         -16.1480    36.2690    -4.8920 c6         1 2HX       0.154800
      5 C5         -16.6850    37.5310    -5.6370 c6         1 2HX       0.157500
      6 C6         -18.1820    37.3050    -6.0500 c6         1 2HX       0.184300
      7 C7         -16.4580    35.1160    -2.6830 ca         1 2HX       0.268000
      8 C8         -15.5420    34.0890    -2.9560 ca         1 2HX      -0.194000
      9 C9         -15.0090    33.3440    -1.9000 ca         1 2HX       0.328900
     10 N10        -15.3330    33.5670    -0.6110 nb         1 2HX      -0.655000
     11 C11        -16.2160    34.5570    -0.3420 ca         1 2HX       0.331900
     12 C12        -16.8110    35.3630    -1.3400 ca         1 2HX      -0.092000
     13 N13        -17.7370    36.4100    -1.0520 ns         1 2HX      -0.124000
     14 C14        -20.5370    36.7080    -5.1260 c3         1 2HX      -0.091100
     15 C15        -18.3200    36.8490     0.1310 c          1 2HX       0.513600
     16 C16        -19.3220    37.9900    -0.0410 ca         1 2HX       0.273500
     17 O17        -18.0630    36.3560     1.2270 o          1 2HX      -0.586100
     18 C18        -19.9820    38.5160     1.0950 ca         1 2HX      -0.069000
     19 C19        -20.9160    39.5580     0.9430 ca         1 2HX      -0.123000
     20 C20        -21.1660    40.0430    -0.3490 ca         1 2HX       0.162000
     21 C21        -20.4730    39.4740    -1.4530 cp         1 2HX       0.383500
     22 N22        -19.5740    38.4730    -1.2940 nb         1 2HX      -0.649000
     23 C23        -20.6930    39.9360    -2.8490 cp         1 2HX      -0.234500
     24 F24        -22.0490    41.0560    -0.5180 f          1 2HX      -0.156000
     25 N25        -15.8010    37.8900    -6.7980 n8         1 2HX      -0.976200
     26 C26        -21.9650    39.8240    -3.4540 ca         1 2HX       0.219000
     27 C27        -22.1880    40.2720    -4.7650 ca         1 2HX      -0.167000
     28 C28        -21.1400    40.8490    -5.5000 ca         1 2HX      -0.036000
     29 C29        -19.8700    40.9700    -4.9150 ca         1 2HX      -0.167000
     30 C30        -19.6480    40.5150    -3.6060 ca         1 2HX       0.219000
     31 F31        -18.4160    40.6660    -3.0690 f          1 2HX      -0.168000
     32 F32        -22.9910    39.2600    -2.7780 f          1 2HX      -0.168000
     33 O33        -18.7250    38.4710    -6.6950 oh         1 2HX      -0.646000
     34 H1         -18.9860    37.7560    -4.0830 hc         1 2HX       0.079700
     35 H2         -19.0340    35.4290    -3.2280 h1         1 2HX       0.046700
     36 H3         -18.5130    34.8090    -4.8000 h1         1 2HX       0.046700
     37 H4         -16.0840    35.4320    -5.6030 h1         1 2HX       0.039200
     38 H5         -15.1290    36.4790    -4.5370 h1         1 2HX       0.039200
     39 H6         -16.6520    38.3700    -4.9250 h1         1 2HX       0.085700
     40 H7         -18.2170    36.4570    -6.7520 h1         1 2HX       0.028700
     41 H8         -15.2490    33.8550    -3.9740 ha         1 2HX       0.121000
     42 H9         -14.2990    32.5400    -2.0910 h4         1 2HX       0.020100
     43 H10        -16.4350    34.6930     0.7140 h4         1 2HX       0.048100
     44 H11        -18.0410    36.9220    -1.8740 hn         1 2HX       0.198000
     45 H12        -21.0950    36.4250    -4.2250 hc         1 2HX       0.039367
     46 H13        -21.0060    37.6170    -5.5190 hc         1 2HX       0.039367
     47 H14        -20.6750    35.9110    -5.8670 hc         1 2HX       0.039367
     48 H15        -19.7700    38.1180     2.0850 ha         1 2HX       0.157000
     49 H16        -21.4310    39.9790     1.8030 ha         1 2HX       0.148000
     50 H17        -14.8210    37.8440    -6.4990 hn         1 2HX       0.393000
     51 H18        -15.8760    37.1570    -7.5110 hn         1 2HX       0.393000
     52 H20        -23.1750    40.1710    -5.2090 ha         1 2HX       0.143500
     53 H21        -21.3110    41.1980    -6.5170 ha         1 2HX       0.131000
     54 H22        -19.0520    41.4130    -5.4770 ha         1 2HX       0.143500
     55 H23        -19.6300    38.2310    -6.9840 ho         1 2HX       0.437000
@<TRIPOS>BOND
     1     1     2 1   
     2     1     6 1   
     3     1    14 1   
     4     1    34 1   
     5     2     3 1   
     6     2    35 1   
     7     2    36 1   
     8     3     4 1   
     9     3     7 1   
    10     4     5 1   
    11     4    37 1   
    12     4    38 1   
    13     5     6 1   
    14     5    25 1   
    15     5    39 1   
    16     6    33 1   
    17     6    40 1   
    18     7     8 ar  
    19     7    12 ar  
    20     8     9 ar  
    21     8    41 1   
    22     9    10 ar  
    23     9    42 1   
    24    10    11 ar  
    25    11    12 ar  
    26    11    43 1   
    27    12    13 1   
    28    13    15 1   
    29    13    44 1   
    30    14    45 1   
    31    14    46 1   
    32    14    47 1   
    33    15    16 1   
    34    15    17 2   
    35    16    18 ar  
    36    16    22 ar  
    37    18    19 ar  
    38    18    48 1   
    39    19    20 ar  
    40    19    49 1   
    41    20    21 ar  
    42    20    24 1   
    43    21    22 ar  
    44    21    23 1   
    45    23    26 ar  
    46    23    30 ar  
    47    25    50 1   
    48    25    51 1   
    49    26    27 ar  
    50    26    32 1   
    51    27    28 ar  
    52    27    52 1   
    53    28    29 ar  
    54    28    53 1   
    55    29    30 ar  
    56    29    54 1   
    57    30    31 1   
    58    33    55 1   
@<TRIPOS>SUBSTRUCTURE
     1 2HX         1 TEMP              0 ****  ****    0 ROOT
