@<TRIPOS>MOLECULE
2HY
   50    52     1     0     0
SMALL
No Charge or Current Charge


@<TRIPOS>ATOM
      1 C1           0.7380     0.2830    -1.5530 c          1 2HY       0.617000
      2 F1           6.2430     1.8360    -1.4150 f          1 2HY      -0.110667
      3 N1           1.1520    -0.0820    -0.2480 n          1 2HY      -0.177600
      4 O1           1.4260     0.9390    -2.3200 o          1 2HY      -0.554000
      5 C2          -1.5460    -0.6160    -1.0660 c6         1 2HY       0.241200
      6 F2           6.2270    -0.3170    -1.1100 f          1 2HY      -0.110667
      7 N2          -0.5160    -0.0900    -1.9410 ns         1 2HY      -0.503900
      8 O2          -1.5110    -2.9060     1.8750 o          1 2HY      -0.501000
      9 C3          -0.9110    -1.3120     0.1380 ce         1 2HY      -0.298400
     10 F3           7.1380     0.9790     0.3710 f          1 2HY      -0.110667
     11 N3          -5.8950     4.4910     0.8160 n1         1 2HY      -0.450000
     12 O3          -3.0470    -2.3820     0.2820 os         1 2HY      -0.441100
     13 C4           0.3810    -1.0390     0.4780 c2         1 2HY       0.169400
     14 C5           2.3320     0.5300     0.3120 ca         1 2HY      -0.055000
     15 C6           3.5830     0.4140    -0.3280 ca         1 2HY      -0.045000
     16 C7           4.7400     0.9980     0.2340 ca         1 2HY      -0.193300
     17 C8           4.6250     1.7160     1.4440 ca         1 2HY      -0.052000
     18 C9           3.3810     1.8300     2.0870 ca         1 2HY      -0.110000
     19 C10          2.2390     1.2360     1.5260 ca         1 2HY      -0.068000
     20 C11          6.0910     0.8730    -0.4790 c3         1 2HY       0.360300
     21 C13         -2.4920     0.5190    -0.6530 ca         1 2HY      -0.084300
     22 C14         -3.8300     0.5130    -1.0940 ca         1 2HY      -0.093000
     23 C15         -4.7090     1.5420    -0.7160 ca         1 2HY      -0.079500
     24 C16         -4.2590     2.5900     0.1100 ca         1 2HY      -0.013000
     25 C17         -2.9230     2.6000     0.5540 ca         1 2HY      -0.079500
     26 C18         -2.0450     1.5690     0.1750 ca         1 2HY      -0.093000
     27 C19         -5.1580     3.6430     0.4980 cg         1 2HY       0.322000
     28 C20         -1.8130    -2.2820     0.8680 c          1 2HY       0.632300
     29 C21         -4.0270    -3.2540     0.8820 c3         1 2HY       0.165600
     30 C22         -5.3370    -3.1750     0.0580 c3         1 2HY       0.157600
     31 C23          1.0990    -1.7790     1.6080 c3         1 2HY      -0.087900
     32 O33         -5.1570    -3.7040    -1.2690 oh         1 2HY      -0.656000
     33 H2          -2.1050    -1.3530    -1.6640 h1         1 2HY       0.085700
     34 HN2         -0.7830     0.1890    -2.8760 hn         1 2HY       0.339500
     35 H6           3.6550    -0.1390    -1.2630 ha         1 2HY       0.142000
     36 H8           5.4970     2.1890     1.8930 ha         1 2HY       0.134000
     37 H9           3.3020     2.3810     3.0210 ha         1 2HY       0.128000
     38 H10          1.2810     1.3320     2.0320 ha         1 2HY       0.127000
     39 H14         -4.1930    -0.2930    -1.7290 ha         1 2HY       0.126000
     40 H15         -5.7400     1.5230    -1.0640 ha         1 2HY       0.124500
     41 H17         -2.5630     3.4030     1.1930 ha         1 2HY       0.124500
     42 H18         -1.0170     1.5910     0.5290 ha         1 2HY       0.126000
     43 H21         -3.6710    -4.2930     0.9030 h1         1 2HY       0.057700
     44 H21A        -4.2380    -2.9440     1.9140 h1         1 2HY       0.057700
     45 H22         -6.1150    -3.7420     0.5860 h1         1 2HY       0.031700
     46 H22A        -5.6650    -2.1280     0.0130 h1         1 2HY       0.031700
     47 H23          2.1800    -1.6080     1.6260 hc         1 2HY       0.074033
     48 H23A         0.7030    -1.4830     2.5860 hc         1 2HY       0.074033
     49 H23B         0.9830    -2.8640     1.5030 hc         1 2HY       0.074033
     50 HO33        -6.0170    -3.6080    -1.7350 ho         1 2HY       0.445000
@<TRIPOS>BOND
     1     1     3 1   
     2     1     4 2   
     3     1     7 1   
     4     2    20 1   
     5     3    13 1   
     6     3    14 1   
     7     5     7 1   
     8     5     9 1   
     9     5    21 1   
    10     5    33 1   
    11     6    20 1   
    12     7    34 1   
    13     8    28 2   
    14     9    13 2   
    15     9    28 1   
    16    10    20 1   
    17    11    27 3   
    18    12    28 1   
    19    12    29 1   
    20    13    31 1   
    21    14    15 ar  
    22    14    19 ar  
    23    15    16 ar  
    24    15    35 1   
    25    16    17 ar  
    26    16    20 1   
    27    17    18 ar  
    28    17    36 1   
    29    18    19 ar  
    30    18    37 1   
    31    19    38 1   
    32    21    22 ar  
    33    21    26 ar  
    34    22    23 ar  
    35    22    39 1   
    36    23    24 ar  
    37    23    40 1   
    38    24    25 ar  
    39    24    27 1   
    40    25    26 ar  
    41    25    41 1   
    42    26    42 1   
    43    29    30 1   
    44    29    43 1   
    45    29    44 1   
    46    30    32 1   
    47    30    45 1   
    48    30    46 1   
    49    31    47 1   
    50    31    48 1   
    51    31    49 1   
    52    32    50 1   
@<TRIPOS>SUBSTRUCTURE
     1 2HY         1 TEMP              0 ****  ****    0 ROOT
