@<TRIPOS>MOLECULE
2HY
   50    52     1     0     0
SMALL
bcc


@<TRIPOS>ATOM
      1 C1           0.6620     0.6680    -1.4680 c          1 2HY       0.826500
      2 F1           6.5220     0.6320    -1.1240 f          1 2HY      -0.231967
      3 N1           1.0530     0.2060    -0.2070 n          1 2HY      -0.337200
      4 O1           1.3820     1.4030    -2.1120 o          1 2HY      -0.629500
      5 C2          -1.5180    -0.4660    -1.0940 c6         1 2HY       0.241200
      6 F2           5.8240    -1.3010    -0.4910 f          1 2HY      -0.231967
      7 N2          -0.5260     0.2130    -1.8940 ns         1 2HY      -0.570900
      8 O2          -1.1800    -3.1550     1.4040 o          1 2HY      -0.550000
      9 C3          -0.8400    -1.2000     0.0380 ce         1 2HY      -0.298400
     10 F3           6.8930    -0.0360     0.8840 f          1 2HY      -0.231967
     11 N3          -6.3540     3.9700     0.9850 n1         1 2HY      -0.360800
     12 O3          -2.8450    -2.3070     0.1960 os         1 2HY      -0.417900
     13 C4           0.3870    -0.8150     0.4620 c2         1 2HY       0.169400
     14 C5           2.3050     0.7090     0.2600 ca         1 2HY       0.037600
     15 C6           3.4860     0.1000    -0.1290 ca         1 2HY      -0.063000
     16 C7           4.6940     0.5880     0.3440 ca         1 2HY      -0.193300
     17 C8           4.7210     1.6900     1.1910 ca         1 2HY      -0.070000
     18 C9           3.5360     2.2990     1.5650 ca         1 2HY      -0.128000
     19 C10          2.3250     1.8090     1.1000 ca         1 2HY      -0.086000
     20 C11          5.9840    -0.0360    -0.0950 c3         1 2HY       0.724200
     21 C13         -2.5880     0.4990    -0.6060 ca         1 2HY      -0.084300
     22 C14         -3.9030     0.3560    -1.0280 ca         1 2HY      -0.111000
     23 C15         -4.8790     1.2470    -0.6190 ca         1 2HY      -0.097500
     24 C16         -4.5410     2.2990     0.2280 ca         1 2HY      -0.013000
     25 C17         -3.2240     2.4480     0.6640 ca         1 2HY      -0.097500
     26 C18         -2.2610     1.5510     0.2460 ca         1 2HY      -0.111000
     27 C19         -5.5420     3.2240     0.6500 cg         1 2HY       0.232800
     28 C20         -1.5860    -2.3140     0.6360 c          1 2HY       0.681300
     29 C21         -3.7180    -3.3470     0.6110 c3         1 2HY       0.142400
     30 C22         -5.1120    -2.9920     0.1630 c3         1 2HY       0.134400
     31 C23          1.1230    -1.3900     1.6280 c3         1 2HY      -0.087900
     32 O33         -5.1580    -2.9500    -1.2420 oh         1 2HY      -0.593800
     33 H2          -2.0010    -1.1870    -1.7560 h1         1 2HY       0.085700
     34 HN2         -0.8040     0.5290    -2.8080 hn         1 2HY       0.339500
     35 H6           3.4490    -0.7500    -0.7970 ha         1 2HY       0.160000
     36 H8           5.6600     2.0740     1.5650 ha         1 2HY       0.152000
     37 H9           3.5550     3.1550     2.2250 ha         1 2HY       0.146000
     38 H10          1.3940     2.2770     1.3930 ha         1 2HY       0.145000
     39 H14         -4.1730    -0.4760    -1.6660 ha         1 2HY       0.144000
     40 H15         -5.9010     1.1310    -0.9540 ha         1 2HY       0.142500
     41 H17         -2.9640     3.2630     1.3270 ha         1 2HY       0.142500
     42 H18         -1.2450     1.6740     0.5970 ha         1 2HY       0.144000
     43 H21         -3.4030    -4.3000     0.1780 h1         1 2HY       0.057700
     44 H21A        -3.7080    -3.4530     1.6980 h1         1 2HY       0.057700
     45 H22         -5.7840    -3.7580     0.5730 h1         1 2HY       0.031700
     46 H22A        -5.4020    -2.0340     0.6150 h1         1 2HY       0.031700
     47 H23          1.5010    -0.5980     2.2720 hc         1 2HY       0.074033
     48 H23A         0.4970    -2.0460     2.2140 hc         1 2HY       0.074033
     49 H23B         1.9880    -1.9600     1.2840 hc         1 2HY       0.074033
     50 HO33        -6.0690    -2.8220    -1.5130 ho         1 2HY       0.406000
@<TRIPOS>BOND
     1     1     3 1   
     2     1     4 2   
     3     1     7 1   
     4     2    20 1   
     5     3    13 1   
     6     3    14 1   
     7     5     7 1   
     8     5     9 1   
     9     5    21 1   
    10     5    33 1   
    11     6    20 1   
    12     7    34 1   
    13     8    28 2   
    14     9    13 2   
    15     9    28 1   
    16    10    20 1   
    17    11    27 3   
    18    12    28 1   
    19    12    29 1   
    20    13    31 1   
    21    14    15 ar  
    22    14    19 ar  
    23    15    16 ar  
    24    15    35 1   
    25    16    17 ar  
    26    16    20 1   
    27    17    18 ar  
    28    17    36 1   
    29    18    19 ar  
    30    18    37 1   
    31    19    38 1   
    32    21    22 ar  
    33    21    26 ar  
    34    22    23 ar  
    35    22    39 1   
    36    23    24 ar  
    37    23    40 1   
    38    24    25 ar  
    39    24    27 1   
    40    25    26 ar  
    41    25    41 1   
    42    26    42 1   
    43    29    30 1   
    44    29    43 1   
    45    29    44 1   
    46    30    32 1   
    47    30    45 1   
    48    30    46 1   
    49    31    47 1   
    50    31    48 1   
    51    31    49 1   
    52    32    50 1   
@<TRIPOS>SUBSTRUCTURE
     1 2HY         1 TEMP              0 ****  ****    0 ROOT
