@<TRIPOS>MOLECULE
2HZ
   30    31     1     0     0
SMALL
bcc


@<TRIPOS>ATOM
      1 C1           0.0140    -0.0420     0.5180 cp         1 2HZ      -0.081000
      2 C2          -0.2120     1.2370     1.0260 ca         1 2HZ      -0.136000
      3 C3          -1.5100     1.6790     1.2390 ca         1 2HZ      -0.135000
      4 C5          -2.5920     0.8690     0.9370 ca         1 2HZ      -0.079000
      5 C6          -2.3930    -0.4090     0.4080 ca         1 2HZ       0.014200
      6 C7          -1.0830    -0.8500     0.2240 ca         1 2HZ      -0.128000
      7 C9          -3.5000    -1.3100     0.0630 ce         1 2HZ      -0.207200
      8 C10         -4.7220    -0.9650    -0.3470 cf         1 2HZ      -0.145200
      9 C11         -5.2620     0.4270    -0.5980 c          1 2HZ       0.908800
     10 O12         -6.1180     0.8200     0.2190 o          1 2HZ      -0.822800
     11 O14         -4.8390     1.0240    -1.6010 o          1 2HZ      -0.822800
     12 C19          1.3870    -0.5380     0.2990 cp         1 2HZ       0.001000
     13 C20          1.7220    -1.8690     0.5580 ca         1 2HZ      -0.087000
     14 C22          3.0100    -2.3370     0.3520 ca         1 2HZ      -0.145000
     15 C24          4.0010    -1.4890    -0.1160 ca         1 2HZ      -0.086000
     16 C26          3.6620    -0.1690    -0.3710 ca         1 2HZ      -0.179200
     17 N27          4.6860     0.7380    -0.8730 no         1 2HZ       0.315200
     18 O28          5.8030     0.3040    -1.0230 o          1 2HZ      -0.221000
     19 O29          4.3690     1.8790    -1.1140 o          1 2HZ      -0.221000
     20 C30          2.3790     0.3160    -0.1740 ca         1 2HZ      -0.067000
     21 H1           0.6210     1.8760     1.2900 ha         1 2HZ       0.114000
     22 H2          -1.6780     2.6620     1.6610 ha         1 2HZ       0.125000
     23 H3          -3.5930     1.2190     1.1500 ha         1 2HZ       0.173000
     24 H4          -0.9200    -1.8400    -0.1860 ha         1 2HZ       0.117000
     25 H5          -3.2720    -2.3690     0.1470 ha         1 2HZ       0.084000
     26 H6          -5.4250    -1.7740    -0.5330 ha         1 2HZ       0.095000
     27 H8           0.9700    -2.5470     0.9410 ha         1 2HZ       0.146000
     28 H9           3.2480    -3.3700     0.5650 ha         1 2HZ       0.136000
     29 H10          5.0040    -1.8570    -0.2730 ha         1 2HZ       0.158000
     30 H11          2.1410     1.3450    -0.4030 ha         1 2HZ       0.175000
@<TRIPOS>BOND
     1     1     2 ar  
     2     1     6 ar  
     3     1    12 1   
     4     2     3 ar  
     5     2    21 1   
     6     3     4 ar  
     7     3    22 1   
     8     4     5 ar  
     9     4    23 1   
    10     5     6 ar  
    11     5     7 1   
    12     6    24 1   
    13     7     8 2   
    14     7    25 1   
    15     8     9 1   
    16     8    26 1   
    17     9    10 1   
    18     9    11 1   
    19    12    13 ar  
    20    12    20 ar  
    21    13    14 ar  
    22    13    27 1   
    23    14    15 ar  
    24    14    28 1   
    25    15    16 ar  
    26    15    29 1   
    27    16    17 1   
    28    16    20 ar  
    29    17    18 1   
    30    17    19 1   
    31    20    30 1   
@<TRIPOS>SUBSTRUCTURE
     1 2HZ         1 TEMP              0 ****  ****    0 ROOT
