@<TRIPOS>MOLECULE
2HZ
   30    31     1     0     0
SMALL
No Charge or Current Charge


@<TRIPOS>ATOM
      1 C1           0.0190    -0.0180     0.5950 cp         1 2HZ      -0.081000
      2 C2          -0.1690     1.2810     1.1310 ca         1 2HZ      -0.118000
      3 C3          -1.4550     1.7640     1.4220 ca         1 2HZ      -0.117000
      4 C5          -2.5810     0.9620     1.1760 ca         1 2HZ      -0.061000
      5 C6          -2.4280    -0.3240     0.6290 ca         1 2HZ       0.014200
      6 C7          -1.1350    -0.8080     0.3580 ca         1 2HZ      -0.110000
      7 C9          -3.6030    -1.2080     0.3950 ce         1 2HZ      -0.257200
      8 C10         -4.7920    -0.9830    -0.2530 cf         1 2HZ      -0.195200
      9 C11         -5.2570     0.2430    -0.9830 c          1 2HZ       0.698200
     10 O12         -6.3840     0.2090    -1.4540 o          1 2HZ      -0.717500
     11 O14         -4.5100     1.1990    -1.1150 o          1 2HZ      -0.717500
     12 C19          1.3900    -0.5410     0.2940 cp         1 2HZ       0.001000
     13 C20          1.7100    -1.9060     0.4920 ca         1 2HZ      -0.069000
     14 C22          2.9950    -2.3970     0.2110 ca         1 2HZ      -0.127000
     15 C24          3.9920    -1.5370    -0.2750 ca         1 2HZ      -0.068000
     16 C26          3.7080    -0.1680    -0.4860 ca         1 2HZ      -0.179200
     17 N27          4.7660     0.7580    -1.0100 no         1 2HZ       0.695200
     18 O28          5.8860     0.2900    -1.2540 o          1 2HZ      -0.411000
     19 O29          4.4730     1.9500    -1.1720 o          1 2HZ      -0.411000
     20 C30          2.4080     0.3160    -0.1990 ca         1 2HZ      -0.049000
     21 H1           0.6890     1.9130     1.3430 ha         1 2HZ       0.096000
     22 H2          -1.5790     2.7590     1.8440 ha         1 2HZ       0.107000
     23 H3          -3.5740     1.3360     1.4160 ha         1 2HZ       0.155000
     24 H4          -1.0280    -1.8060    -0.0600 ha         1 2HZ       0.099000
     25 H5          -3.4640    -2.2050     0.8150 ha         1 2HZ       0.134000
     26 H6          -5.5080    -1.8030    -0.2700 ha         1 2HZ       0.145000
     27 H8           0.9590    -2.5890     0.8810 ha         1 2HZ       0.128000
     28 H9           3.2200    -3.4490     0.3740 ha         1 2HZ       0.118000
     29 H10          4.9810    -1.9420    -0.4860 ha         1 2HZ       0.140000
     30 H11          2.1700     1.3630    -0.3700 ha         1 2HZ       0.157000
@<TRIPOS>BOND
     1     1     2 ar  
     2     1     6 ar  
     3     1    12 1   
     4     2     3 ar  
     5     2    21 1   
     6     3     4 ar  
     7     3    22 1   
     8     4     5 ar  
     9     4    23 1   
    10     5     6 ar  
    11     5     7 1   
    12     6    24 1   
    13     7     8 2   
    14     7    25 1   
    15     8     9 1   
    16     8    26 1   
    17     9    10 1   
    18     9    11 1   
    19    12    13 ar  
    20    12    20 ar  
    21    13    14 ar  
    22    13    27 1   
    23    14    15 ar  
    24    14    28 1   
    25    15    16 ar  
    26    15    29 1   
    27    16    17 1   
    28    16    20 ar  
    29    17    18 1   
    30    17    19 1   
    31    20    30 1   
@<TRIPOS>SUBSTRUCTURE
     1 2HZ         1 TEMP              0 ****  ****    0 ROOT
