@<TRIPOS>MOLECULE
2I0
   65    69     1     0     0
SMALL
No Charge or Current Charge


@<TRIPOS>ATOM
      1 C1           1.4750    51.1550   -27.6910 ca         1 2I0       0.132100
      2 C2           2.7930    51.3530   -27.2330 ca         1 2I0      -0.191000
      3 C3           3.0590    51.3440   -25.8560 ca         1 2I0      -0.079000
      4 C7          -0.4310    50.7560   -24.4190 cc         1 2I0       0.353500
      5 C8          -0.4260    50.9910   -23.0230 cc         1 2I0      -0.265500
      6 C9          -1.6340    50.5840   -22.5410 cd         1 2I0      -0.144000
      7 C10         -3.6120    49.3920   -23.6940 c5         1 2I0       0.086300
      8 C11         -3.5480    47.8410   -23.6040 c5         1 2I0      -0.113400
      9 C12         -3.3080    47.6010   -22.0900 c5         1 2I0       0.098000
     10 C13         -4.5460    49.6980   -22.4860 c5         1 2I0       0.086000
     11 C15         -5.2930    49.8950   -19.6050 c3         1 2I0      -0.153400
     12 C16         -5.6910    49.8370   -18.1120 c3         1 2I0      -0.077100
     13 C19          0.4810    50.1170   -20.3090 ca         1 2I0      -0.169000
     14 C20          0.8460    49.7750   -18.9880 ca         1 2I0       0.128100
     15 C21          1.5800    50.6950   -18.2060 ca         1 2I0       0.153100
     16 C22          1.9440    51.9450   -18.7540 ca         1 2I0      -0.190000
     17 C24          1.5490    53.7760   -21.8250 ca         1 2I0       0.120900
     18 O1          -4.0660    47.8230   -19.3750 o          1 2I0      -0.601100
     19 N2          -4.1130    48.6850   -21.4910 n          1 2I0      -0.434800
     20 N           -2.2920    50.0470   -23.6480 na         1 2I0       0.133800
     21 N1          -1.5480    50.1640   -24.8120 nd         1 2I0      -0.526800
     22 C5           0.6800    50.9940   -25.3670 ca         1 2I0      -0.076500
     23 C4           2.0170    51.1560   -24.9330 ca         1 2I0      -0.118000
     24 C6           0.4380    50.9670   -26.7620 ca         1 2I0      -0.116000
     25 O            1.1500    51.1360   -29.0330 os         1 2I0      -0.343100
     26 C            2.1370    51.3190   -30.0640 c3         1 2I0       0.149900
     27 C17          0.4710    51.7730   -22.1680 ca         1 2I0       0.235500
     28 N4           0.8250    52.9870   -22.6400 nb         1 2I0      -0.179000
     29 N3           1.9360    53.4910   -20.5680 nb         1 2I0      -0.175000
     30 C23          1.5740    52.2940   -20.0650 ca         1 2I0       0.041000
     31 C18          0.8220    51.3800   -20.8450 ca         1 2I0      -0.121000
     32 C25          2.6760    51.2040   -16.0430 c3         1 2I0       0.142900
     33 O3           0.5040    48.5520   -18.4300 os         1 2I0      -0.317100
     34 C26         -0.3070    47.5850   -19.1220 c3         1 2I0       0.139900
     35 H1           3.6190    51.4990   -27.9240 ha         1 2I0       0.115000
     36 H2           4.0800    51.4710   -25.5000 ha         1 2I0       0.111000
     37 H3          -2.0710    50.6450   -21.5510 h4         1 2I0       0.163000
     38 H4          -4.1010    49.7010   -24.6270 h1         1 2I0       0.102700
     39 H5          -4.4960    47.3920   -23.9230 hc         1 2I0       0.075700
     40 H6          -2.7590    47.4070   -24.2290 hc         1 2I0       0.075700
     41 H7          -3.6440    46.6040   -21.7740 h1         1 2I0       0.060700
     42 H8          -2.2480    47.7130   -21.8240 h1         1 2I0       0.060700
     43 H9          -4.4290    50.7310   -22.1310 h1         1 2I0       0.062700
     44 H10         -5.6000    49.5450   -22.7530 h1         1 2I0       0.062700
     45 H11         -4.7500    50.8200   -19.8330 hc         1 2I0       0.055700
     46 H12         -6.1720    49.9980   -20.2510 hc         1 2I0       0.055700
     47 H13         -6.2870    50.7160   -17.8400 hc         1 2I0       0.044367
     48 H14         -6.2880    48.9410   -17.9040 hc         1 2I0       0.044367
     49 H15         -4.8000    49.8170   -17.4730 hc         1 2I0       0.044367
     50 H16         -0.0490    49.3990   -20.9240 ha         1 2I0       0.129000
     51 H17          2.5150    52.6630   -18.1740 ha         1 2I0       0.142000
     52 H18          1.8390    54.7480   -22.2180 h5         1 2I0       0.048100
     53 H19          2.2720    51.1060   -23.8800 ha         1 2I0       0.118000
     54 H20         -0.5700    50.8160   -27.1390 ha         1 2I0       0.134000
     55 H21          1.6660    51.2680   -31.0530 h1         1 2I0       0.038700
     56 H22          2.6240    52.2980   -29.9690 h1         1 2I0       0.038700
     57 H23          2.9050    50.5360   -30.0120 h1         1 2I0       0.038700
     58 H24          2.8370    50.7190   -15.0720 h1         1 2I0       0.045700
     59 H25          3.6580    51.4380   -16.4720 h1         1 2I0       0.045700
     60 H26          2.1330    52.1410   -15.8680 h1         1 2I0       0.045700
     61 H27         -0.4800    46.7090   -18.4840 h1         1 2I0       0.047367
     62 H28         -1.2830    48.0130   -19.3840 h1         1 2I0       0.047367
     63 H29          0.1870    47.2440   -20.0400 h1         1 2I0       0.047367
     64 C14         -4.4490    48.7140   -20.1230 c          1 2I0       0.604100
     65 O2           1.9300    50.3350   -16.9140 os         1 2I0      -0.315100
@<TRIPOS>BOND
     1     1     2 ar  
     2     1    24 ar  
     3     1    25 1   
     4     2     3 ar  
     5     2    35 1   
     6     3    23 ar  
     7     3    36 1   
     8     4     5 1   
     9     4    21 2   
    10     4    22 1   
    11     5     6 2   
    12     5    27 1   
    13     6    20 1   
    14     6    37 1   
    15     7     8 1   
    16     7    10 1   
    17     7    20 1   
    18     7    38 1   
    19     8     9 1   
    20     8    39 1   
    21     8    40 1   
    22     9    19 1   
    23     9    41 1   
    24     9    42 1   
    25    10    19 1   
    26    10    43 1   
    27    10    44 1   
    28    11    12 1   
    29    11    45 1   
    30    11    46 1   
    31    11    64 1   
    32    12    47 1   
    33    12    48 1   
    34    12    49 1   
    35    13    14 ar  
    36    13    31 ar  
    37    13    50 1   
    38    14    15 ar  
    39    14    33 1   
    40    15    16 ar  
    41    15    65 1   
    42    16    30 ar  
    43    16    51 1   
    44    17    28 ar  
    45    17    29 ar  
    46    17    52 1   
    47    18    64 2   
    48    19    64 1   
    49    20    21 1   
    50    22    23 ar  
    51    22    24 ar  
    52    23    53 1   
    53    24    54 1   
    54    25    26 1   
    55    26    55 1   
    56    26    56 1   
    57    26    57 1   
    58    27    28 ar  
    59    27    31 ar  
    60    29    30 ar  
    61    30    31 ar  
    62    32    58 1   
    63    32    59 1   
    64    32    60 1   
    65    32    65 1   
    66    33    34 1   
    67    34    61 1   
    68    34    62 1   
    69    34    63 1   
@<TRIPOS>SUBSTRUCTURE
     1 2I0         1 TEMP              0 ****  ****    0 ROOT
