@<TRIPOS>MOLECULE
2I0
   65    69     1     0     0
SMALL
abcg2


@<TRIPOS>ATOM
      1 C1           1.3540    51.3960   -27.5630 ca         1 2I0       0.132100
      2 C2           2.6890    51.2030   -27.2170 ca         1 2I0      -0.191000
      3 C3           3.0040    50.8150   -25.9180 ca         1 2I0      -0.079000
      4 C7          -0.3930    50.5920   -24.3390 cc         1 2I0       0.353500
      5 C8          -0.4440    50.9060   -22.9580 cc         1 2I0      -0.265500
      6 C9          -1.6810    50.4440   -22.5530 cd         1 2I0      -0.144000
      7 C10         -3.5390    49.2040   -23.7350 c5         1 2I0       0.086300
      8 C11         -3.3270    47.7030   -23.5400 c5         1 2I0      -0.113400
      9 C12         -3.2630    47.5440   -22.0250 c5         1 2I0       0.098000
     10 C13         -4.4920    49.5500   -22.6020 c5         1 2I0       0.086000
     11 C15         -5.3790    49.8760   -19.8810 c3         1 2I0      -0.153400
     12 C16         -5.8100    49.8660   -18.4250 c3         1 2I0      -0.077100
     13 C19          0.4170    50.1540   -20.1700 ca         1 2I0      -0.169000
     14 C20          0.7880    49.9090   -18.8770 ca         1 2I0       0.128100
     15 C21          1.6370    50.8400   -18.1850 ca         1 2I0       0.153100
     16 C22          2.1000    51.9550   -18.8300 ca         1 2I0      -0.190000
     17 C24          1.8740    53.4930   -22.0230 ca         1 2I0       0.120900
     18 O1          -4.0800    47.9060   -19.4190 o          1 2I0      -0.601100
     19 N2          -4.1020    48.6340   -21.5390 n          1 2I0      -0.434800
     20 N           -2.2780    49.9240   -23.6350 na         1 2I0       0.133800
     21 N1          -1.5060    49.9900   -24.7150 nd         1 2I0      -0.526800
     22 C5           0.6810    50.8200   -25.3120 ca         1 2I0      -0.076500
     23 C4           2.0200    50.6210   -24.9670 ca         1 2I0      -0.118000
     24 C6           0.3570    51.2020   -26.6060 ca         1 2I0      -0.116000
     25 O            0.9300    51.7730   -28.7840 os         1 2I0      -0.343100
     26 C            1.8870    51.9500   -29.8070 c3         1 2I0       0.149900
     27 C17          0.5110    51.6770   -22.1640 ca         1 2I0       0.235500
     28 N4           1.0290    52.7450   -22.7400 nb         1 2I0      -0.179000
     29 N3           2.2350    53.3030   -20.7820 nb         1 2I0      -0.175000
     30 C23          1.7330    52.2100   -20.1690 ca         1 2I0       0.041000
     31 C18          0.8630    51.3210   -20.8380 ca         1 2I0      -0.121000
     32 C25          2.7510    51.3630   -16.1700 c3         1 2I0       0.142900
     33 O3           0.4360    48.8420   -18.1540 os         1 2I0      -0.317100
     34 C26         -0.4090    47.8770   -18.7500 c3         1 2I0       0.139900
     35 H1           3.4860    51.3460   -27.9330 ha         1 2I0       0.115000
     36 H2           4.0420    50.6580   -25.6550 ha         1 2I0       0.111000
     37 H3          -2.1630    50.4990   -21.5900 h4         1 2I0       0.163000
     38 H4          -3.9620    49.4500   -24.7070 h1         1 2I0       0.102700
     39 H5          -4.1910    47.1750   -23.9450 hc         1 2I0       0.075700
     40 H6          -2.4380    47.3310   -24.0470 hc         1 2I0       0.075700
     41 H7          -3.6390    46.5760   -21.6960 h1         1 2I0       0.060700
     42 H8          -2.2400    47.6460   -21.6500 h1         1 2I0       0.060700
     43 H9          -4.4280    50.5960   -22.2990 h1         1 2I0       0.062700
     44 H10         -5.5180    49.3680   -22.9350 h1         1 2I0       0.062700
     45 H11         -4.8640    50.8140   -20.1110 hc         1 2I0       0.055700
     46 H12         -6.2560    49.8600   -20.5350 hc         1 2I0       0.055700
     47 H13         -6.4620    50.7160   -18.2270 hc         1 2I0       0.044367
     48 H14         -6.3600    48.9600   -18.1740 hc         1 2I0       0.044367
     49 H15         -4.9570    49.9380   -17.7520 hc         1 2I0       0.044367
     50 H16         -0.2010    49.4450   -20.7010 ha         1 2I0       0.129000
     51 H17          2.7580    52.6630   -18.3450 ha         1 2I0       0.142000
     52 H18          2.2880    54.3590   -22.5300 h5         1 2I0       0.048100
     53 H19          2.2870    50.3020   -23.9680 ha         1 2I0       0.118000
     54 H20         -0.6770    51.3640   -26.8830 ha         1 2I0       0.134000
     55 H21          1.3350    52.2320   -30.7010 h1         1 2I0       0.038700
     56 H22          2.6000    52.7450   -29.5710 h1         1 2I0       0.038700
     57 H23          2.4420    51.0310   -30.0130 h1         1 2I0       0.038700
     58 H24          2.8390    50.9120   -15.1850 h1         1 2I0       0.045700
     59 H25          3.7460    51.4500   -16.6120 h1         1 2I0       0.045700
     60 H26          2.3180    52.3610   -16.0690 h1         1 2I0       0.045700
     61 H27         -0.5580    47.0980   -18.0060 h1         1 2I0       0.047367
     62 H28         -1.3790    48.2980   -19.0210 h1         1 2I0       0.047367
     63 H29          0.0450    47.4320   -19.6400 h1         1 2I0       0.047367
     64 C14         -4.4690    48.7220   -20.2460 c          1 2I0       0.604100
     65 O2           1.9160    50.5050   -16.9270 os         1 2I0      -0.315100
@<TRIPOS>BOND
     1     1     2 ar  
     2     1    24 ar  
     3     1    25 1   
     4     2     3 ar  
     5     2    35 1   
     6     3    23 ar  
     7     3    36 1   
     8     4     5 1   
     9     4    21 2   
    10     4    22 1   
    11     5     6 2   
    12     5    27 1   
    13     6    20 1   
    14     6    37 1   
    15     7     8 1   
    16     7    10 1   
    17     7    20 1   
    18     7    38 1   
    19     8     9 1   
    20     8    39 1   
    21     8    40 1   
    22     9    19 1   
    23     9    41 1   
    24     9    42 1   
    25    10    19 1   
    26    10    43 1   
    27    10    44 1   
    28    11    12 1   
    29    11    45 1   
    30    11    46 1   
    31    11    64 1   
    32    12    47 1   
    33    12    48 1   
    34    12    49 1   
    35    13    14 ar  
    36    13    31 ar  
    37    13    50 1   
    38    14    15 ar  
    39    14    33 1   
    40    15    16 ar  
    41    15    65 1   
    42    16    30 ar  
    43    16    51 1   
    44    17    28 ar  
    45    17    29 ar  
    46    17    52 1   
    47    18    64 2   
    48    19    64 1   
    49    20    21 1   
    50    22    23 ar  
    51    22    24 ar  
    52    23    53 1   
    53    24    54 1   
    54    25    26 1   
    55    26    55 1   
    56    26    56 1   
    57    26    57 1   
    58    27    28 ar  
    59    27    31 ar  
    60    29    30 ar  
    61    30    31 ar  
    62    32    58 1   
    63    32    59 1   
    64    32    60 1   
    65    32    65 1   
    66    33    34 1   
    67    34    61 1   
    68    34    62 1   
    69    34    63 1   
@<TRIPOS>SUBSTRUCTURE
     1 2I0         1 TEMP              0 ****  ****    0 ROOT
