@<TRIPOS>MOLECULE
2I3
   12    13     1     0     0
SMALL
No Charge or Current Charge


@<TRIPOS>ATOM
      1 N1          -7.4960    -3.2190    11.5980 nc         1 2I3      -0.624000
      2 C2          -6.4860    -3.0780    12.4350 cd         1 2I3       0.429900
      3 C4          -4.1460    -3.2060    12.6550 cc         1 2I3      -0.117000
      4 C           -6.8450    -3.5790    10.4350 cc         1 2I3       0.349000
      5 S           -6.3650    -2.6430    14.1150 ss         1 2I3       0.048600
      6 C3          -4.5820    -2.8340    13.9300 cd         1 2I3      -0.242000
      7 N           -5.2860    -3.3180    11.8920 na         1 2I3      -0.015500
      8 C1          -5.4710    -3.6520    10.5710 cd         1 2I3      -0.212000
      9 H1          -3.1520    -3.3900    12.2610 h4         1 2I3       0.170000
     10 H2          -3.9530    -2.6550    14.7960 h4         1 2I3       0.168000
     11 H3          -4.6830    -3.9000     9.8720 h4         1 2I3       0.177000
     12 Cl          -7.7020    -3.9000     8.9630 cl         1 2I3      -0.132000
@<TRIPOS>BOND
     1     1     2 2   
     2     1     4 1   
     3     2     5 1   
     4     2     7 1   
     5     3     6 2   
     6     3     7 1   
     7     3     9 1   
     8     4     8 2   
     9     4    12 1   
    10     5     6 1   
    11     6    10 1   
    12     7     8 1   
    13     8    11 1   
@<TRIPOS>SUBSTRUCTURE
     1 2I3         1 TEMP              0 ****  ****    0 ROOT
