@<TRIPOS>MOLECULE
2I3
   12    13     1     0     0
SMALL
abcg2


@<TRIPOS>ATOM
      1 N1          -7.4640    -3.2310    11.5760 nc         1 2I3      -0.624000
      2 C2          -6.4720    -3.0890    12.4160 cd         1 2I3       0.429900
      3 C4          -4.1840    -3.1900    12.7070 cc         1 2I3      -0.117000
      4 C           -6.8450    -3.5820    10.4220 cc         1 2I3       0.349000
      5 S           -6.3070    -2.6580    14.0790 ss         1 2I3       0.048600
      6 C3          -4.5770    -2.8300    13.9380 cd         1 2I3      -0.242000
      7 N           -5.2600    -3.3340    11.8520 na         1 2I3      -0.015500
      8 C1          -5.4850    -3.6610    10.5390 cd         1 2I3      -0.212000
      9 H1          -3.1780    -3.3620    12.3610 h4         1 2I3       0.170000
     10 H2          -3.9440    -2.6510    14.7920 h4         1 2I3       0.168000
     11 H3          -4.7050    -3.9080     9.8410 h4         1 2I3       0.177000
     12 CL          -7.7460    -3.8790     8.9990 cl         1 2I3      -0.132000
@<TRIPOS>BOND
     1     1     2 2   
     2     1     4 1   
     3     2     5 1   
     4     2     7 1   
     5     3     6 2   
     6     3     7 1   
     7     3     9 1   
     8     4     8 2   
     9     4    12 1   
    10     5     6 1   
    11     6    10 1   
    12     7     8 1   
    13     8    11 1   
@<TRIPOS>SUBSTRUCTURE
     1 2I3         1 TEMP              0 ****  ****    0 ROOT
