@<TRIPOS>MOLECULE
2I4
   96   100     1     0     0
SMALL
No Charge or Current Charge


@<TRIPOS>ATOM
      1 C13         18.2190    -0.9420     4.7180 c6         1 2I4      -0.047700
      2 C18         17.7590    -0.5850     3.2670 c5         1 2I4      -0.019700
      3 C15         16.1210    -2.4360     4.9040 c6         1 2I4      -0.065400
      4 C19         18.8150    -0.2490     2.1470 c5         1 2I4      -0.021500
      5 C20         19.3460     1.1980     2.2010 c2         1 2I4      -0.086400
      6 C21         18.0180    -0.4750     0.8070 c5         1 2I4      -0.059400
      7 C22         16.6060    -0.9790     1.2500 c5         1 2I4      -0.052400
      8 C34         17.5540     1.5480    18.0220 c          1 2I4       0.724000
      9 C33         17.1990     1.8440    16.5200 c3         1 2I4      -0.175000
     10 C2          19.3020     0.7750    11.3420 c6         1 2I4      -0.085400
     11 C3          17.9580     0.4700    12.0720 c6         1 2I4       0.173300
     12 C4          17.3470    -0.9350    11.7030 c6         1 2I4      -0.034000
     13 C5          17.2040    -0.9680    10.0880 c6         1 2I4      -0.045700
     14 C6          16.5570    -2.2510     9.5130 c6         1 2I4      -0.068400
     15 C7          16.2260    -2.0680     8.0050 c6         1 2I4      -0.072400
     16 C9          18.2430    -0.4930     7.7040 c6         1 2I4      -0.045700
     17 C14         16.9720    -1.3170     5.6190 c6         1 2I4      -0.018000
     18 C25         20.1310    -2.0590     9.6060 c3         1 2I4      -0.075100
     19 C26         18.3540    -3.0390     7.0290 c3         1 2I4      -0.087100
     20 C30         18.4880     2.2340     2.2290 c2         1 2I4      -0.356000
     21 C32         18.4830     1.6750    15.6230 c3         1 2I4      -0.115400
     22 C35         16.0730     0.8880    16.0160 c3         1 2I4      -0.059100
     23 C36         16.6810     3.3070    16.4470 c3         1 2I4      -0.059100
     24 O1          18.1360     0.5880    13.5010 os         1 2I4      -0.452100
     25 O2          17.1670    -3.8630     1.4190 o          1 2I4      -0.736000
     26 O3          18.8020    -3.3290     2.6620 o          1 2I4      -0.736000
     27 O4          18.1810     2.8840    13.5250 o          1 2I4      -0.527000
     28 O5          18.6830     1.8030    18.4160 o          1 2I4      -0.729500
     29 O6          16.7410     0.9600    18.7220 o          1 2I4      -0.729500
     30 C1          19.1620     0.7630     9.8000 c6         1 2I4      -0.071400
     31 C8          17.4620    -1.7370     7.0910 c6         1 2I4      -0.015000
     32 C10         18.5650    -0.6110     9.2770 c6         1 2I4      -0.022000
     33 C11         19.4630    -0.0950     6.8150 c6         1 2I4      -0.069400
     34 C12         19.0340     0.2090     5.3620 c6         1 2I4      -0.065400
     35 C16         15.6840    -2.0520     3.4610 c6         1 2I4      -0.035400
     36 C17         16.9200    -1.7370     2.5800 c5         1 2I4      -0.181000
     37 C28         17.6950    -3.0860     2.2040 c          1 2I4       0.725000
     38 C29         20.8490     1.4070     2.1620 c3         1 2I4      -0.057900
     39 H13         18.8830    -1.8080     4.6440 hc         1 2I4       0.094700
     40 H18         17.1080     0.2800     3.4180 hc         1 2I4       0.011700
     41 H1          15.2150    -2.6500     5.4840 hc         1 2I4       0.037200
     42 H15         16.6760    -3.3780     4.8390 hc         1 2I4       0.037200
     43 H19         19.6590    -0.9460     2.2020 hc         1 2I4       0.082700
     44 H4          18.5240    -1.2230     0.1850 hc         1 2I4       0.028700
     45 H2          17.9400     0.4280     0.1910 hc         1 2I4       0.028700
     46 H8          15.9260    -0.1340     1.4170 hc         1 2I4       0.023700
     47 H22         16.1320    -1.6100     0.4910 hc         1 2I4       0.023700
     48 H23         16.0270    -0.9320    13.5230 hc         1 2I4       0.034533
     49 H14         15.2420    -0.2820    12.0800 hc         1 2I4       0.034533
     50 H10         15.4690    -2.0250    12.2650 hc         1 2I4       0.034533
     51 H17         18.1370    -2.1060    13.4370 hc         1 2I4       0.034533
     52 H20         17.8590    -3.0900    12.0030 hc         1 2I4       0.034533
     53 H24         19.2690    -2.0320    12.1080 hc         1 2I4       0.034533
     54 H28         14.7860     0.1900     6.3520 hc         1 2I4       0.022700
     55 H33         16.1790     1.2710     6.1910 hc         1 2I4       0.022700
     56 H31         15.3190     0.7170     4.7620 hc         1 2I4       0.022700
     57 H37         20.0720     0.0640    11.6600 hc         1 2I4       0.044700
     58 H34         19.6740     1.7620    11.6430 hc         1 2I4       0.044700
     59 H3          17.2270     1.2320    11.7610 h1         1 2I4       0.063700
     60 H5          16.5010    -0.1560     9.8530 hc         1 2I4       0.039700
     61 H6          15.6200    -2.4690    10.0390 hc         1 2I4       0.034200
     62 H38         17.2020    -3.1220     9.6790 hc         1 2I4       0.034200
     63 H27         15.4710    -1.2770     7.9210 hc         1 2I4       0.035700
     64 H7          15.7330    -2.9850     7.6560 hc         1 2I4       0.035700
     65 H9          17.5560     0.3590     7.6510 hc         1 2I4       0.037700
     66 H25         20.7880    -1.7560    10.4280 hc         1 2I4       0.029367
     67 H39         19.7300    -3.0460     9.8600 hc         1 2I4       0.029367
     68 H40         20.7660    -2.1660     8.7200 hc         1 2I4       0.029367
     69 H42         18.6120    -3.4190     8.0150 hc         1 2I4       0.036367
     70 H41         17.8360    -3.8750     6.5530 hc         1 2I4       0.036367
     71 H26         19.2980    -2.9000     6.4940 hc         1 2I4       0.036367
     72 H43         17.4070     2.1010     2.2170 ha         1 2I4       0.153000
     73 H30         18.8420     3.2650     2.2480 ha         1 2I4       0.153000
     74 H45         18.8770     0.6690    15.8130 hc         1 2I4       0.074700
     75 H46         19.2290     2.4220    15.9150 hc         1 2I4       0.074700
     76 H47         15.1660     0.9830    16.6270 hc         1 2I4       0.018533
     77 H49         15.7860     1.1190    14.9830 hc         1 2I4       0.018533
     78 H48         16.4030    -0.1570    16.0530 hc         1 2I4       0.018533
     79 H36         15.8250     3.4480    17.1180 hc         1 2I4       0.018533
     80 H35         17.4630     4.0140    16.7480 hc         1 2I4       0.018533
     81 H50         16.3560     3.5680    15.4330 hc         1 2I4       0.018533
     82 H53         20.1530     0.9470     9.3680 hc         1 2I4       0.036700
     83 H21         18.5160     1.5960     9.4900 hc         1 2I4       0.036700
     84 H11         20.2300    -0.8780     6.8230 hc         1 2I4       0.030200
     85 H54         19.9510     0.8070     7.2010 hc         1 2I4       0.030200
     86 H55         19.9360     0.3980     4.7710 hc         1 2I4       0.029700
     87 H12         18.4500     1.1380     5.3370 hc         1 2I4       0.029700
     88 H56         15.0070    -1.1880     3.4920 hc         1 2I4       0.024200
     89 H16         15.1030    -2.8710     3.0170 hc         1 2I4       0.024200
     90 H29         21.1140     2.4690     2.2110 hc         1 2I4       0.029700
     91 H32         21.3460     0.9030     2.9990 hc         1 2I4       0.029700
     92 H44         21.2720     1.0030     1.2350 hc         1 2I4       0.029700
     93 C23         15.9380    -1.0500    12.4370 c3         1 2I4      -0.082100
     94 C24         18.2060    -2.1080    12.3430 c3         1 2I4      -0.082100
     95 C27         15.6750     0.4050     5.7490 c3         1 2I4      -0.083100
     96 C31         18.2480     1.8110    14.1100 c          1 2I4       0.595100
@<TRIPOS>BOND
     1     1     2 1   
     2     1    17 1   
     3     1    34 1   
     4     1    39 1   
     5     2     4 1   
     6     2    36 1   
     7     2    40 1   
     8     3    17 1   
     9     3    35 1   
    10     3    41 1   
    11     3    42 1   
    12     4     5 1   
    13     4     6 1   
    14     4    43 1   
    15     5    20 2   
    16     5    38 1   
    17     6     7 1   
    18     6    44 1   
    19     6    45 1   
    20     7    36 1   
    21     7    46 1   
    22     7    47 1   
    23     8     9 1   
    24     8    28 1   
    25     8    29 1   
    26     9    21 1   
    27     9    22 1   
    28     9    23 1   
    29    10    11 1   
    30    10    30 1   
    31    10    57 1   
    32    10    58 1   
    33    11    12 1   
    34    11    24 1   
    35    11    59 1   
    36    12    13 1   
    37    12    93 1   
    38    12    94 1   
    39    13    14 1   
    40    13    32 1   
    41    13    60 1   
    42    14    15 1   
    43    14    61 1   
    44    14    62 1   
    45    15    31 1   
    46    15    63 1   
    47    15    64 1   
    48    16    31 1   
    49    16    32 1   
    50    16    33 1   
    51    16    65 1   
    52    17    31 1   
    53    17    95 1   
    54    18    32 1   
    55    18    66 1   
    56    18    67 1   
    57    18    68 1   
    58    19    31 1   
    59    19    69 1   
    60    19    70 1   
    61    19    71 1   
    62    20    72 1   
    63    20    73 1   
    64    21    74 1   
    65    21    75 1   
    66    21    96 1   
    67    22    76 1   
    68    22    77 1   
    69    22    78 1   
    70    23    79 1   
    71    23    80 1   
    72    23    81 1   
    73    24    96 1   
    74    25    37 1   
    75    26    37 1   
    76    27    96 2   
    77    30    32 1   
    78    30    82 1   
    79    30    83 1   
    80    33    34 1   
    81    33    84 1   
    82    33    85 1   
    83    34    86 1   
    84    34    87 1   
    85    35    36 1   
    86    35    88 1   
    87    35    89 1   
    88    36    37 1   
    89    38    90 1   
    90    38    91 1   
    91    38    92 1   
    92    48    93 1   
    93    49    93 1   
    94    50    93 1   
    95    51    94 1   
    96    52    94 1   
    97    53    94 1   
    98    54    95 1   
    99    55    95 1   
   100    56    95 1   
@<TRIPOS>SUBSTRUCTURE
     1 2I4         1 TEMP              0 ****  ****    0 ROOT
