@<TRIPOS>MOLECULE
2I4
   96   100     1     0     0
SMALL
bcc


@<TRIPOS>ATOM
      1 C13         18.1880    -0.8610     4.8500 c6         1 2I4      -0.047700
      2 C18         17.8090    -0.6140     3.3930 c5         1 2I4      -0.019700
      3 C15         15.9420    -2.0460     5.0770 c6         1 2I4      -0.065400
      4 C19         18.8970    -0.3040     2.3560 c5         1 2I4      -0.021500
      5 C20         19.3140     1.1400     2.2020 c2         1 2I4      -0.086400
      6 C21         18.2980    -0.8350     1.0130 c5         1 2I4      -0.059400
      7 C22         16.8840    -1.3250     1.3510 c5         1 2I4      -0.052400
      8 C34         17.6130     1.7300    17.8340 c          1 2I4       0.934600
      9 C33         17.2240     1.3270    16.3720 c3         1 2I4      -0.175000
     10 C2          19.4870     0.8280    11.2670 c6         1 2I4      -0.085400
     11 C3          18.1210     0.7480    11.9160 c6         1 2I4       0.150100
     12 C4          17.3630    -0.5540    11.6130 c6         1 2I4      -0.034000
     13 C5          17.3170    -0.6810    10.0610 c6         1 2I4      -0.045700
     14 C6          16.5010    -1.8700     9.5630 c6         1 2I4      -0.068400
     15 C7          16.1620    -1.7220     8.0850 c6         1 2I4      -0.072400
     16 C9          18.3060    -0.4250     7.7830 c6         1 2I4      -0.045700
     17 C14         16.9160    -1.0320     5.7300 c6         1 2I4      -0.018000
     18 C25         19.6200    -1.7680     9.5610 c3         1 2I4      -0.075100
     19 C26         18.1130    -2.8720     7.0710 c3         1 2I4      -0.087100
     20 C30         18.6340     2.1970     2.6460 c2         1 2I4      -0.256000
     21 C32         18.2280     2.0150    15.4180 c3         1 2I4      -0.115400
     22 C35         17.2450    -0.1860    16.1840 c3         1 2I4      -0.059100
     23 C36         15.8000     1.8450    16.1320 c3         1 2I4      -0.059100
     24 O1          18.2990     0.8980    13.3350 os         1 2I4      -0.428900
     25 O2          16.9200    -4.1480     2.6130 o          1 2I4      -0.841300
     26 O3          18.9150    -3.2390     2.9510 o          1 2I4      -0.841300
     27 O4          17.2430     2.8720    13.4090 o          1 2I4      -0.576000
     28 O5          17.6200     0.8280    18.6930 o          1 2I4      -0.834800
     29 O6          17.8470     2.9390    18.0320 o          1 2I4      -0.834800
     30 C1          19.3720     0.7020     9.7540 c6         1 2I4      -0.071400
     31 C8          17.3810    -1.5190     7.1700 c6         1 2I4      -0.015000
     32 C10         18.6670    -0.5890     9.2980 c6         1 2I4      -0.022000
     33 C11         19.5190    -0.1700     6.8830 c6         1 2I4      -0.069400
     34 C12         19.1290     0.1780     5.4490 c6         1 2I4      -0.065400
     35 C16         15.6750    -1.8200     3.5850 c6         1 2I4      -0.035400
     36 C17         16.9860    -1.7720     2.8140 c5         1 2I4      -0.181000
     37 C28         17.6740    -3.1720     2.8120 c          1 2I4       0.935600
     38 C29         20.5920     1.3250     1.4350 c3         1 2I4      -0.057900
     39 H13         18.7300    -1.8090     4.8640 hc         1 2I4       0.094700
     40 H18         17.1300     0.2470     3.3630 hc         1 2I4       0.011700
     41 H1          14.9910    -2.0220     5.6180 hc         1 2I4       0.037200
     42 H15         16.3120    -3.0670     5.1820 hc         1 2I4       0.037200
     43 H19         19.7970    -0.8790     2.5870 hc         1 2I4       0.082700
     44 H4          18.9040    -1.6540     0.6250 hc         1 2I4       0.028700
     45 H2          18.2800    -0.0650     0.2390 hc         1 2I4       0.028700
     46 H8          16.1690    -0.4970     1.2750 hc         1 2I4       0.023700
     47 H22         16.5340    -2.1080     0.6740 hc         1 2I4       0.023700
     48 H23         15.9220    -0.1480    13.2010 hc         1 2I4       0.034533
     49 H14         15.3920     0.3960    11.6100 hc         1 2I4       0.034533
     50 H10         15.3530    -1.3150    12.0350 hc         1 2I4       0.034533
     51 H17         17.8320    -1.7020    13.3970 hc         1 2I4       0.034533
     52 H20         17.5150    -2.6880    11.9850 hc         1 2I4       0.034533
     53 H24         19.0570    -1.8620    12.1500 hc         1 2I4       0.034533
     54 H28         15.2170     0.1990     6.3710 hc         1 2I4       0.022700
     55 H33         16.7020     1.1200     6.2530 hc         1 2I4       0.022700
     56 H31         15.8510     0.6400     4.8120 hc         1 2I4       0.022700
     57 H37         20.1520     0.0640    11.6780 hc         1 2I4       0.044700
     58 H34         19.9420     1.7920    11.5120 hc         1 2I4       0.044700
     59 H3          17.5140     1.5770    11.5400 h1         1 2I4       0.063700
     60 H5          16.7640     0.2160     9.7390 hc         1 2I4       0.039700
     61 H6          15.5600    -1.9430    10.1110 hc         1 2I4       0.034200
     62 H38         17.0210    -2.8110     9.7560 hc         1 2I4       0.034200
     63 H27         15.4810    -0.8730     7.9920 hc         1 2I4       0.035700
     64 H7          15.6000    -2.6010     7.7550 hc         1 2I4       0.035700
     65 H9          17.7220     0.5020     7.7740 hc         1 2I4       0.037700
     66 H25         20.2490    -1.5950    10.4340 hc         1 2I4       0.029367
     67 H39         19.1090    -2.7130     9.7350 hc         1 2I4       0.029367
     68 H40         20.3010    -1.9220     8.7240 hc         1 2I4       0.029367
     69 H42         18.1530    -3.3750     8.0350 hc         1 2I4       0.036367
     70 H41         17.6040    -3.5580     6.3970 hc         1 2I4       0.036367
     71 H26         19.1390    -2.7910     6.7190 hc         1 2I4       0.036367
     72 H43         17.7150     2.1130     3.2110 ha         1 2I4       0.103000
     73 H30         18.9860     3.2040     2.4570 ha         1 2I4       0.103000
     74 H45         19.2130     1.5620    15.5560 hc         1 2I4       0.074700
     75 H46         18.3000     3.0620    15.7070 hc         1 2I4       0.074700
     76 H47         16.5660    -0.6740    16.8820 hc         1 2I4       0.018533
     77 H49         16.9350    -0.4700    15.1780 hc         1 2I4       0.018533
     78 H48         18.2420    -0.5980    16.3500 hc         1 2I4       0.018533
     79 H36         15.1200     1.4420    16.8850 hc         1 2I4       0.018533
     80 H35         15.7500     2.9330    16.1850 hc         1 2I4       0.018533
     81 H50         15.4120     1.5380    15.1580 hc         1 2I4       0.018533
     82 H53         20.3740     0.7670     9.3270 hc         1 2I4       0.036700
     83 H21         18.8160     1.5660     9.3730 hc         1 2I4       0.036700
     84 H11         20.1710    -1.0470     6.8630 hc         1 2I4       0.030200
     85 H54         20.1240     0.6420     7.2900 hc         1 2I4       0.030200
     86 H55         20.0370     0.2390     4.8420 hc         1 2I4       0.029700
     87 H12         18.6860     1.1770     5.4160 hc         1 2I4       0.029700
     88 H56         15.1270    -0.8830     3.4310 hc         1 2I4       0.024200
     89 H16         15.0260    -2.6160     3.2140 hc         1 2I4       0.024200
     90 H29         20.8340     2.3760     1.2790 hc         1 2I4       0.029700
     91 H32         21.4280     0.8580     1.9630 hc         1 2I4       0.029700
     92 H44         20.5380     0.8410     0.4560 hc         1 2I4       0.029700
     93 C23         15.9290    -0.3950    12.1390 c3         1 2I4      -0.082100
     94 C24         17.9870    -1.7620    12.3190 c3         1 2I4      -0.082100
     95 C27         16.1430     0.3010     5.8050 c3         1 2I4      -0.083100
     96 C31         17.8600     1.9890    13.9590 c          1 2I4       0.644100
@<TRIPOS>BOND
     1     1     2 1   
     2     1    17 1   
     3     1    34 1   
     4     1    39 1   
     5     2     4 1   
     6     2    36 1   
     7     2    40 1   
     8     3    17 1   
     9     3    35 1   
    10     3    41 1   
    11     3    42 1   
    12     4     5 1   
    13     4     6 1   
    14     4    43 1   
    15     5    20 2   
    16     5    38 1   
    17     6     7 1   
    18     6    44 1   
    19     6    45 1   
    20     7    36 1   
    21     7    46 1   
    22     7    47 1   
    23     8     9 1   
    24     8    28 1   
    25     8    29 1   
    26     9    21 1   
    27     9    22 1   
    28     9    23 1   
    29    10    11 1   
    30    10    30 1   
    31    10    57 1   
    32    10    58 1   
    33    11    12 1   
    34    11    24 1   
    35    11    59 1   
    36    12    13 1   
    37    12    93 1   
    38    12    94 1   
    39    13    14 1   
    40    13    32 1   
    41    13    60 1   
    42    14    15 1   
    43    14    61 1   
    44    14    62 1   
    45    15    31 1   
    46    15    63 1   
    47    15    64 1   
    48    16    31 1   
    49    16    32 1   
    50    16    33 1   
    51    16    65 1   
    52    17    31 1   
    53    17    95 1   
    54    18    32 1   
    55    18    66 1   
    56    18    67 1   
    57    18    68 1   
    58    19    31 1   
    59    19    69 1   
    60    19    70 1   
    61    19    71 1   
    62    20    72 1   
    63    20    73 1   
    64    21    74 1   
    65    21    75 1   
    66    21    96 1   
    67    22    76 1   
    68    22    77 1   
    69    22    78 1   
    70    23    79 1   
    71    23    80 1   
    72    23    81 1   
    73    24    96 1   
    74    25    37 1   
    75    26    37 1   
    76    27    96 2   
    77    30    32 1   
    78    30    82 1   
    79    30    83 1   
    80    33    34 1   
    81    33    84 1   
    82    33    85 1   
    83    34    86 1   
    84    34    87 1   
    85    35    36 1   
    86    35    88 1   
    87    35    89 1   
    88    36    37 1   
    89    38    90 1   
    90    38    91 1   
    91    38    92 1   
    92    48    93 1   
    93    49    93 1   
    94    50    93 1   
    95    51    94 1   
    96    52    94 1   
    97    53    94 1   
    98    54    95 1   
    99    55    95 1   
   100    56    95 1   
@<TRIPOS>SUBSTRUCTURE
     1 2I4         1 TEMP              0 ****  ****    0 ROOT
