@<TRIPOS>MOLECULE
2I5
   55    59     1     0     0
SMALL
No Charge or Current Charge


@<TRIPOS>ATOM
      1 C10         87.6150     7.3050     8.3970 cc         1 2I5      -0.125000
      2 C13         89.4180     5.2520    10.6540 ca         1 2I5      -0.024000
      3 C17         88.6020     6.9680    12.7230 ca         1 2I5      -0.193000
      4 C24         86.4470    10.9290     4.6250 c6         1 2I5       0.090300
      5 C26         87.8910    12.7520     3.6770 c6         1 2I5      -0.094400
      6 C02         85.4500     6.1750     4.3390 ca         1 2I5       0.461900
      7 C04         84.7460     7.4150     2.5510 ca         1 2I5       0.199900
      8 C06         85.7910     8.5290     4.2530 ca         1 2I5       0.167500
      9 C07         85.9250     7.3470     4.9300 ca         1 2I5      -0.371900
     10 C08         86.6080     7.6630     6.1790 cd         1 2I5       0.370900
     11 C09         86.9680     6.7990     7.2980 cd         1 2I5       0.197700
     12 C12         88.3620     6.1610    10.4280 ca         1 2I5      -0.038200
     13 C14         90.0600     5.2060    11.9030 ca         1 2I5      -0.044900
     14 C16         89.6550     6.0620    12.9380 ca         1 2I5      -0.030000
     15 C18         87.9550     7.0210    11.4760 ca         1 2I5       0.152100
     16 C25         87.8630    11.2800     4.1250 c6         1 2I5      -0.084400
     17 C27         87.4590    13.7010     4.8200 c6         1 2I5       0.090000
     18 C30         84.1440    13.9990     6.8900 c3         1 2I5      -0.156400
     19 C31         84.2490    13.4610     8.3350 c3         1 2I5      -0.086100
     20 C33         86.0130    11.8760     5.7750 c6         1 2I5       0.091000
     21 N03         84.8490     6.2020     3.1430 nb         1 2I5      -0.317000
     22 N05         85.1950     8.5910     3.0460 nb         1 2I5      -0.250000
     23 N11         87.7420     6.1910     9.1760 na         1 2I5       0.218000
     24 N20         87.2260     5.0620     8.6240 nc         1 2I5      -0.184800
     25 N21         86.7440     5.4370     7.4660 nd         1 2I5      -0.383000
     26 N22         86.8850     8.9780     6.2270 nc         1 2I5      -0.542100
     27 N23         86.3720     9.5070     5.0430 na         1 2I5      -0.032100
     28 N28         86.1630    13.3380     5.4740 n          1 2I5      -0.414800
     29 O19         86.9250     7.9040    11.3050 oh         1 2I5      -0.527100
     30 O32         86.0400    15.4040     6.4760 o          1 2I5      -0.612100
     31 Br15        91.4920     3.9710    12.1920 br         1 2I5      -0.079100
     32 H1          87.9630     8.2920     8.6650 h4         1 2I5       0.188000
     33 H2          89.7450     4.5850     9.8590 ha         1 2I5       0.158000
     34 H3          88.2940     7.6250    13.5340 ha         1 2I5       0.128000
     35 H4          85.7450    11.0820     3.7930 h1         1 2I5       0.093700
     36 H5          88.8980    13.0220     3.3310 hc         1 2I5       0.054700
     37 H6          87.2200    12.8890     2.8170 hc         1 2I5       0.054700
     38 H7          84.2600     7.4460     1.5780 h5         1 2I5       0.046100
     39 H8          90.1540     6.0230    13.9050 ha         1 2I5       0.139000
     40 H9          88.1420    10.6260     3.2870 hc         1 2I5       0.058700
     41 H10         88.6020    11.1120     4.9220 hc         1 2I5       0.058700
     42 H11         88.2450    13.7110     5.5890 h1         1 2I5       0.063200
     43 H12         87.3940    14.7210     4.4150 h1         1 2I5       0.063200
     44 H13         83.5540    14.9230     6.9110 hc         1 2I5       0.066700
     45 H14         83.6250    13.2460     6.2880 hc         1 2I5       0.066700
     46 H15         83.2510    13.2600     8.7420 hc         1 2I5       0.040367
     47 H16         84.8250    12.5290     8.3690 hc         1 2I5       0.040367
     48 H17         84.7430    14.1940     8.9860 hc         1 2I5       0.040367
     49 H18         84.9730    11.6320     6.0250 h1         1 2I5       0.063200
     50 H19         86.6150    11.6530     6.6670 h1         1 2I5       0.063200
     51 H20         84.9790     4.2030     4.5110 hn         1 2I5       0.522500
     52 H21         85.8490     4.8720     5.8560 hn         1 2I5       0.522500
     53 H22         86.7830     8.3880    12.1460 ho         1 2I5       0.479000
     54 N01         85.5600     4.9490     4.8820 nv         1 2I5      -1.063900
     55 C29         85.5290    14.3060     6.2910 c          1 2I5       0.604100
@<TRIPOS>BOND
     1     1    11 2   
     2     1    23 1   
     3     1    32 1   
     4     2    12 ar  
     5     2    13 ar  
     6     2    33 1   
     7     3    14 ar  
     8     3    15 ar  
     9     3    34 1   
    10     4    16 1   
    11     4    20 1   
    12     4    27 1   
    13     4    35 1   
    14     5    16 1   
    15     5    17 1   
    16     5    36 1   
    17     5    37 1   
    18     6     9 ar  
    19     6    21 ar  
    20     6    54 1   
    21     7    21 ar  
    22     7    22 ar  
    23     7    38 1   
    24     8     9 ar  
    25     8    22 ar  
    26     8    27 1   
    27     9    10 1   
    28    10    11 1   
    29    10    26 2   
    30    11    25 1   
    31    12    15 ar  
    32    12    23 1   
    33    13    14 ar  
    34    13    31 1   
    35    14    39 1   
    36    15    29 1   
    37    16    40 1   
    38    16    41 1   
    39    17    28 1   
    40    17    42 1   
    41    17    43 1   
    42    18    19 1   
    43    18    44 1   
    44    18    45 1   
    45    18    55 1   
    46    19    46 1   
    47    19    47 1   
    48    19    48 1   
    49    20    28 1   
    50    20    49 1   
    51    20    50 1   
    52    23    24 1   
    53    24    25 2   
    54    26    27 1   
    55    28    55 1   
    56    29    53 1   
    57    30    55 2   
    58    51    54 1   
    59    52    54 1   
@<TRIPOS>SUBSTRUCTURE
     1 2I5         1 TEMP              0 ****  ****    0 ROOT
