@<TRIPOS>MOLECULE
2I5
   55    59     1     0     0
SMALL
abcg2


@<TRIPOS>ATOM
      1 C10         87.9100     7.3270     8.5180 cc         1 2I5      -0.125000
      2 C13         89.3990     4.7470    10.5840 ca         1 2I5      -0.024000
      3 C17         89.4020     6.6050    12.6530 ca         1 2I5      -0.193000
      4 C24         86.6320    11.0500     4.8530 c6         1 2I5       0.090300
      5 C26         88.2030    12.9250     4.3270 c6         1 2I5      -0.094400
      6 C02         85.0840     6.4260     4.7030 ca         1 2I5       0.461900
      7 C04         84.3740     7.8260     3.0030 ca         1 2I5       0.199900
      8 C06         85.7160     8.7270     4.5220 ca         1 2I5       0.167500
      9 C07         85.8120     7.5230     5.2390 ca         1 2I5      -0.371900
     10 C08         86.6640     7.8320     6.3440 cd         1 2I5       0.370900
     11 C09         87.1110     6.9990     7.4450 cd         1 2I5       0.197700
     12 C12         88.7090     5.9460    10.4480 ca         1 2I5      -0.038200
     13 C14         90.0750     4.4860    11.7630 ca         1 2I5      -0.044900
     14 C16         90.0870     5.4090    12.8000 ca         1 2I5      -0.030000
     15 C18         88.6990     6.8880    11.4840 ca         1 2I5       0.152100
     16 C25         88.0910    11.4250     4.6050 c6         1 2I5      -0.084400
     17 C27         87.5490    13.7450     5.4360 c6         1 2I5       0.090000
     18 C30         83.7190    13.7070     5.7090 c3         1 2I5      -0.156400
     19 C31         83.3590    13.6490     7.1990 c3         1 2I5      -0.086100
     20 C33         86.0190    11.9130     5.9640 c6         1 2I5       0.091000
     21 N03         84.3710     6.6160     3.5740 nb         1 2I5      -0.317000
     22 N05         85.0050     8.9250     3.3990 nb         1 2I5      -0.250000
     23 N11         87.9910     6.1910     9.2460 na         1 2I5       0.218000
     24 N20         87.2830     5.1990     8.6640 nc         1 2I5      -0.184800
     25 N21         86.7570     5.6880     7.5830 nd         1 2I5      -0.383000
     26 N22         87.0430     9.1020     6.2850 nc         1 2I5      -0.542100
     27 N23         86.4700     9.6420     5.1790 na         1 2I5      -0.032100
     28 N28         86.1610    13.3220     5.6330 n          1 2I5      -0.414800
     29 O19         87.9960     8.0330    11.3130 oh         1 2I5      -0.527100
     30 O32         85.3370    15.3900     5.2130 o          1 2I5      -0.612100
     31 BR15        91.0160     2.8330    11.9590 br         1 2I5      -0.079100
     32 H1          88.4040     8.2370     8.8020 h4         1 2I5       0.188000
     33 H2          89.3980     4.0400     9.7680 ha         1 2I5       0.158000
     34 H3          89.3980     7.3310    13.4570 ha         1 2I5       0.128000
     35 H4          86.0540    11.1990     3.9400 h1         1 2I5       0.093700
     36 H5          89.2520    13.2120     4.2400 hc         1 2I5       0.054700
     37 H6          87.7190    13.1630     3.3750 hc         1 2I5       0.054700
     38 H7          83.7800     7.9160     2.0990 h5         1 2I5       0.046100
     39 H8          90.6230     5.2040    13.7160 ha         1 2I5       0.139000
     40 H9          88.4830    10.8420     3.7700 hc         1 2I5       0.058700
     41 H10         88.6760    11.1700     5.4930 hc         1 2I5       0.058700
     42 H11         88.0900    13.6000     6.3770 h1         1 2I5       0.063200
     43 H12         87.5470    14.8040     5.1990 h1         1 2I5       0.063200
     44 H13         83.0730    14.4230     5.2040 hc         1 2I5       0.066700
     45 H14         83.5560    12.7360     5.2400 hc         1 2I5       0.066700
     46 H15         82.3150    13.3570     7.3230 hc         1 2I5       0.040367
     47 H16         83.9770    12.9280     7.7370 hc         1 2I5       0.040367
     48 H17         83.4970    14.6260     7.6650 hc         1 2I5       0.040367
     49 H18         84.9770    11.6470     6.0980 h1         1 2I5       0.063200
     50 H19         86.5410    11.7110     6.9040 h1         1 2I5       0.063200
     51 H20         84.5310     4.4820     4.8310 hn         1 2I5       0.522500
     52 H21         85.5910     5.0450     6.1190 hn         1 2I5       0.522500
     53 H22         88.0680     8.5900    12.1000 ho         1 2I5       0.479000
     54 N01         85.0700     5.2150     5.2640 nv         1 2I5      -1.063900
     55 C29         85.1380    14.2010     5.4870 c          1 2I5       0.604100
@<TRIPOS>BOND
     1     1    11 2   
     2     1    23 1   
     3     1    32 1   
     4     2    12 ar  
     5     2    13 ar  
     6     2    33 1   
     7     3    14 ar  
     8     3    15 ar  
     9     3    34 1   
    10     4    16 1   
    11     4    20 1   
    12     4    27 1   
    13     4    35 1   
    14     5    16 1   
    15     5    17 1   
    16     5    36 1   
    17     5    37 1   
    18     6     9 ar  
    19     6    21 ar  
    20     6    54 1   
    21     7    21 ar  
    22     7    22 ar  
    23     7    38 1   
    24     8     9 ar  
    25     8    22 ar  
    26     8    27 1   
    27     9    10 1   
    28    10    11 1   
    29    10    26 2   
    30    11    25 1   
    31    12    15 ar  
    32    12    23 1   
    33    13    14 ar  
    34    13    31 1   
    35    14    39 1   
    36    15    29 1   
    37    16    40 1   
    38    16    41 1   
    39    17    28 1   
    40    17    42 1   
    41    17    43 1   
    42    18    19 1   
    43    18    44 1   
    44    18    45 1   
    45    18    55 1   
    46    19    46 1   
    47    19    47 1   
    48    19    48 1   
    49    20    28 1   
    50    20    49 1   
    51    20    50 1   
    52    23    24 1   
    53    24    25 2   
    54    26    27 1   
    55    28    55 1   
    56    29    53 1   
    57    30    55 2   
    58    51    54 1   
    59    52    54 1   
@<TRIPOS>SUBSTRUCTURE
     1 2I5         1 TEMP              0 ****  ****    0 ROOT
