@<TRIPOS>MOLECULE
2I7
   63    66     1     0     0
SMALL
No Charge or Current Charge


@<TRIPOS>ATOM
      1 N1         -36.3110   -29.7220   -68.3420 n3         1 2I7      -0.721600
      2 N3         -42.0750   -29.6360   -67.5530 nb         1 2I7      -0.178500
      3 C4         -36.8770   -30.9780   -68.9240 c6         1 2I7       0.131800
      4 C5         -34.8160   -29.8110   -68.1130 c6         1 2I7       0.176500
      5 C6         -34.1660   -28.4770   -67.5700 c3         1 2I7       0.156600
      6 C7         -37.1090   -29.2550   -67.1670 c3         1 2I7       0.229100
      7 C8         -37.1480   -30.2310   -65.9860 ca         1 2I7      -0.125300
      8 C10        -38.2380   -32.0990   -64.8260 ca         1 2I7      -0.099300
      9 C13        -41.4730   -30.9280   -62.6260 ca         1 2I7      -0.171000
     10 C17        -42.1740   -29.7070   -65.1010 cp         1 2I7      -0.112500
     11 C20        -43.1200   -27.8590   -68.7760 ca         1 2I7      -0.228000
     12 C21        -43.5560   -27.3200   -67.5550 ca         1 2I7       0.114400
     13 C22        -41.4680   -30.9410   -65.0520 ca         1 2I7      -0.142000
     14 C24        -36.2640   -31.0440   -63.8590 ca         1 2I7      -0.113000
     15 C1         -34.0690   -30.2630   -69.4220 c6         1 2I7       0.127300
     16 C11        -39.3490   -33.1430   -64.7560 c3         1 2I7       0.272100
     17 C12        -41.1080   -31.5400   -63.8320 ca         1 2I7       0.309000
     18 C14        -42.1800   -29.7130   -62.6310 ca         1 2I7      -0.050300
     19 C16        -42.5230   -29.1130   -63.8560 ca         1 2I7      -0.115000
     20 C18        -42.5300   -29.0560   -66.4170 cp         1 2I7       0.196500
     21 C19        -42.3670   -29.0430   -68.7270 ca         1 2I7       0.114400
     22 C2         -34.6610   -31.5870   -69.9790 c6         1 2I7       0.177300
     23 C23        -37.2770   -32.0150   -63.8000 ca         1 2I7      -0.080000
     24 C25        -36.2020   -30.1520   -64.9430 ca         1 2I7      -0.101000
     25 C3         -36.1870   -31.4170   -70.2460 c6         1 2I7       0.171300
     26 C9         -38.1660   -31.2050   -65.9130 ca         1 2I7      -0.097000
     27 N2         -40.3910   -32.7380   -63.7950 nu         1 2I7      -0.975200
     28 N4         -43.2610   -27.9170   -66.3830 nb         1 2I7      -0.178500
     29 O1         -32.6420   -30.4300   -69.2200 oh         1 2I7      -0.732000
     30 O2         -33.9360   -31.9520   -71.1700 oh         1 2I7      -0.644000
     31 O3         -36.7820   -32.6410   -70.7360 oh         1 2I7      -0.700000
     32 O4         -34.2170   -27.3840   -68.5060 oh         1 2I7      -0.650000
     33 H2         -37.9500   -30.8430   -69.1220 h1         1 2I7       0.040200
     34 H3         -36.7840   -31.8020   -68.2010 h1         1 2I7       0.040200
     35 H4         -34.6280   -30.5800   -67.3490 h1         1 2I7       0.046700
     36 H5         -33.1210   -28.6850   -67.3060 h1         1 2I7       0.022700
     37 H6         -34.6550   -28.1850   -66.6340 h1         1 2I7       0.022700
     38 H7         -36.7530   -28.2790   -66.8130 h1         1 2I7       0.061200
     39 H8         -38.1450   -29.0780   -67.4890 h1         1 2I7       0.061200
     40 H10        -43.5990   -29.3180   -61.0390 hc         1 2I7       0.041367
     41 H11        -41.9120   -29.3550   -60.4990 hc         1 2I7       0.041367
     42 H12        -42.5200   -27.9570   -61.3940 hc         1 2I7       0.041367
     43 H13        -43.3570   -27.3790   -69.7220 ha         1 2I7       0.134000
     44 H14        -44.1440   -26.4050   -67.5120 h4         1 2I7       0.023100
     45 H15        -41.1950   -31.4440   -65.9720 ha         1 2I7       0.141000
     46 H16        -35.5300   -30.9780   -63.0600 ha         1 2I7       0.113000
     47 H17        -34.2440   -29.4860   -70.1830 h1         1 2I7       0.070700
     48 H18        -39.7850   -33.2850   -65.7540 h1         1 2I7       0.046700
     49 H19        -38.9170   -34.1080   -64.4540 h1         1 2I7       0.046700
     50 H20        -43.0660   -28.1710   -63.8340 ha         1 2I7       0.134000
     51 H21        -41.9950   -29.5210   -69.6310 h4         1 2I7       0.023100
     52 H22        -34.5320   -32.3670   -69.2130 h1         1 2I7       0.049700
     53 H23        -37.3210   -32.6970   -62.9540 ha         1 2I7       0.126000
     54 H24        -35.4200   -29.4000   -64.9640 ha         1 2I7       0.106000
     55 H25        -36.3190   -30.6120   -70.9850 h1         1 2I7       0.055700
     56 H26        -38.9060   -31.2640   -66.7070 ha         1 2I7       0.107000
     57 H27        -40.2890   -33.1300   -62.8590 hn         1 2I7       0.479000
     58 H28        -32.2540   -29.5250   -69.1570 ho         1 2I7       0.510000
     59 H29        -33.0040   -31.7130   -70.9590 ho         1 2I7       0.453000
     60 H30        -37.6280   -32.3930   -71.1730 ho         1 2I7       0.501000
     61 H31        -33.9210   -26.5790   -68.0250 ho         1 2I7       0.438000
     62 H9         -41.2020   -31.3920   -61.6820 ha         1 2I7       0.107000
     63 C15        -42.5730   -29.0500   -61.3190 c3         1 2I7      -0.046800
@<TRIPOS>BOND
     1     1     3 1   
     2     1     4 1   
     3     1     6 1   
     4     2    20 ar  
     5     2    21 ar  
     6     3    25 1   
     7     3    33 1   
     8     3    34 1   
     9     4     5 1   
    10     4    15 1   
    11     4    35 1   
    12     5    32 1   
    13     5    36 1   
    14     5    37 1   
    15     6     7 1   
    16     6    38 1   
    17     6    39 1   
    18     7    24 ar  
    19     7    26 ar  
    20     8    16 1   
    21     8    23 ar  
    22     8    26 ar  
    23     9    17 ar  
    24     9    18 ar  
    25     9    62 1   
    26    10    13 ar  
    27    10    19 ar  
    28    10    20 1   
    29    11    12 ar  
    30    11    21 ar  
    31    11    43 1   
    32    12    28 ar  
    33    12    44 1   
    34    13    17 ar  
    35    13    45 1   
    36    14    23 ar  
    37    14    24 ar  
    38    14    46 1   
    39    15    22 1   
    40    15    29 1   
    41    15    47 1   
    42    16    27 1   
    43    16    48 1   
    44    16    49 1   
    45    17    27 1   
    46    18    19 ar  
    47    18    63 1   
    48    19    50 1   
    49    20    28 ar  
    50    21    51 1   
    51    22    25 1   
    52    22    30 1   
    53    22    52 1   
    54    23    53 1   
    55    24    54 1   
    56    25    31 1   
    57    25    55 1   
    58    26    56 1   
    59    27    57 1   
    60    29    58 1   
    61    30    59 1   
    62    31    60 1   
    63    32    61 1   
    64    40    63 1   
    65    41    63 1   
    66    42    63 1   
@<TRIPOS>SUBSTRUCTURE
     1 2I7         1 TEMP              0 ****  ****    0 ROOT
