@<TRIPOS>MOLECULE
2I7
   63    66     1     0     0
SMALL
bcc


@<TRIPOS>ATOM
      1 N1         -35.7360   -30.2600   -69.0740 n3         1 2I7      -0.721600
      2 N3         -42.2210   -28.3060   -66.4270 nb         1 2I7      -0.704500
      3 C4         -36.2070   -31.6260   -69.1710 c6         1 2I7       0.131800
      4 C5         -34.3860   -30.1790   -68.5310 c6         1 2I7       0.176500
      5 C6         -33.8630   -28.7520   -68.4530 c3         1 2I7       0.133400
      6 C7         -36.7330   -29.3760   -68.4820 c3         1 2I7       0.229100
      7 C8         -37.0990   -29.6570   -67.0370 ca         1 2I7      -0.125300
      8 C10        -38.3430   -30.9800   -65.4140 ca         1 2I7      -0.099300
      9 C13        -41.8350   -31.4130   -62.5130 ca         1 2I7      -0.189000
     10 C17        -42.5780   -29.4810   -64.3530 cp         1 2I7      -0.112500
     11 C20        -43.6910   -26.5760   -67.1130 ca         1 2I7      -0.376600
     12 C21        -44.4080   -26.7990   -65.9500 ca         1 2I7       0.442700
     13 C22        -41.4580   -30.2740   -64.5990 ca         1 2I7      -0.160000
     14 C24        -36.8550   -29.2430   -64.6700 ca         1 2I7      -0.131000
     15 C1         -33.4470   -31.0280   -69.4080 c6         1 2I7       0.104100
     16 C11        -39.2890   -32.1290   -65.1400 c3         1 2I7       0.272100
     17 C12        -41.0740   -31.2540   -63.6810 ca         1 2I7       0.170600
     18 C14        -42.9510   -30.6300   -62.2640 ca         1 2I7      -0.050300
     19 C16        -43.3220   -29.6570   -63.1900 ca         1 2I7      -0.133000
     20 C18        -42.9730   -28.4470   -65.3370 cp         1 2I7       0.722500
     21 C19        -42.5810   -27.3800   -67.3020 ca         1 2I7       0.442700
     22 C2         -33.9250   -32.4690   -69.5400 c6         1 2I7       0.154100
     23 C23        -37.7490   -30.2640   -64.3810 ca         1 2I7      -0.098000
     24 C25        -36.5290   -28.9450   -65.9860 ca         1 2I7      -0.119000
     25 C3         -35.3330   -32.4670   -70.0930 c6         1 2I7       0.148100
     26 C9         -38.0220   -30.6560   -66.7280 ca         1 2I7      -0.115000
     27 N2         -39.9730   -32.0470   -63.8790 nu         1 2I7      -0.781600
     28 N4         -44.0570   -27.7230   -65.0700 nb         1 2I7      -0.704500
     29 O1         -32.1450   -31.0830   -68.8590 oh         1 2I7      -0.609800
     30 O2         -33.0840   -33.2090   -70.3890 oh         1 2I7      -0.581800
     31 O3         -35.7970   -33.7940   -70.1570 oh         1 2I7      -0.577800
     32 O4         -33.8930   -28.1620   -69.7320 oh         1 2I7      -0.587800
     33 H2         -37.2270   -31.6110   -69.5670 h1         1 2I7       0.040200
     34 H3         -36.2520   -32.1340   -68.1930 h1         1 2I7       0.040200
     35 H4         -34.3380   -30.5800   -67.5010 h1         1 2I7       0.046700
     36 H5         -32.8480   -28.7910   -68.0410 h1         1 2I7       0.022700
     37 H6         -34.4470   -28.1710   -67.7330 h1         1 2I7       0.022700
     38 H7         -36.4010   -28.3430   -68.5870 h1         1 2I7       0.061200
     39 H8         -37.6340   -29.4630   -69.0960 h1         1 2I7       0.061200
     40 H10        -44.6000   -31.5350   -61.2280 hc         1 2I7       0.041367
     41 H11        -43.1800   -31.2880   -60.2230 hc         1 2I7       0.041367
     42 H12        -44.2050   -29.9200   -60.6630 hc         1 2I7       0.041367
     43 H13        -43.9810   -25.8210   -67.8290 ha         1 2I7       0.152000
     44 H14        -45.2930   -26.2170   -65.7190 h4         1 2I7       0.023100
     45 H15        -40.8920   -30.1150   -65.5050 ha         1 2I7       0.159000
     46 H16        -36.4100   -28.6740   -63.8630 ha         1 2I7       0.131000
     47 H17        -33.4250   -30.5890   -70.4130 h1         1 2I7       0.070700
     48 H18        -39.9930   -32.2250   -65.9770 h1         1 2I7       0.046700
     49 H19        -38.7120   -33.0560   -65.1300 h1         1 2I7       0.046700
     50 H20        -44.1880   -29.0370   -63.0030 ha         1 2I7       0.152000
     51 H21        -41.9590   -27.2770   -68.1850 h4         1 2I7       0.023100
     52 H22        -33.9570   -32.9140   -68.5300 h1         1 2I7       0.049700
     53 H23        -37.9990   -30.4940   -63.3530 ha         1 2I7       0.144000
     54 H24        -35.8390   -28.1350   -66.1880 ha         1 2I7       0.124000
     55 H25        -35.3190   -32.0010   -71.0900 h1         1 2I7       0.055700
     56 H26        -38.5130   -31.1920   -67.5340 ha         1 2I7       0.125000
     57 H27        -39.9000   -32.8540   -63.2830 hn         1 2I7       0.423800
     58 H28        -31.6090   -30.3880   -69.2500 ho         1 2I7       0.411000
     59 H29        -32.1840   -33.0990   -70.0650 ho         1 2I7       0.414000
     60 H30        -36.6600   -33.7900   -70.5840 ho         1 2I7       0.402000
     61 H31        -33.4770   -27.2970   -69.6730 ho         1 2I7       0.399000
     62 H9         -41.5420   -32.1690   -61.7920 ha         1 2I7       0.125000
     63 C15        -43.7720   -30.8510   -61.0260 c3         1 2I7      -0.046800
@<TRIPOS>BOND
     1     1     3 1   
     2     1     4 1   
     3     1     6 1   
     4     2    20 ar  
     5     2    21 ar  
     6     3    25 1   
     7     3    33 1   
     8     3    34 1   
     9     4     5 1   
    10     4    15 1   
    11     4    35 1   
    12     5    32 1   
    13     5    36 1   
    14     5    37 1   
    15     6     7 1   
    16     6    38 1   
    17     6    39 1   
    18     7    24 ar  
    19     7    26 ar  
    20     8    16 1   
    21     8    23 ar  
    22     8    26 ar  
    23     9    17 ar  
    24     9    18 ar  
    25     9    62 1   
    26    10    13 ar  
    27    10    19 ar  
    28    10    20 1   
    29    11    12 ar  
    30    11    21 ar  
    31    11    43 1   
    32    12    28 ar  
    33    12    44 1   
    34    13    17 ar  
    35    13    45 1   
    36    14    23 ar  
    37    14    24 ar  
    38    14    46 1   
    39    15    22 1   
    40    15    29 1   
    41    15    47 1   
    42    16    27 1   
    43    16    48 1   
    44    16    49 1   
    45    17    27 1   
    46    18    19 ar  
    47    18    63 1   
    48    19    50 1   
    49    20    28 ar  
    50    21    51 1   
    51    22    25 1   
    52    22    30 1   
    53    22    52 1   
    54    23    53 1   
    55    24    54 1   
    56    25    31 1   
    57    25    55 1   
    58    26    56 1   
    59    27    57 1   
    60    29    58 1   
    61    30    59 1   
    62    31    60 1   
    63    32    61 1   
    64    40    63 1   
    65    41    63 1   
    66    42    63 1   
@<TRIPOS>SUBSTRUCTURE
     1 2I7         1 TEMP              0 ****  ****    0 ROOT
