@<TRIPOS>MOLECULE
2I8
   61    65     1     0     0
SMALL
abcg2


@<TRIPOS>ATOM
      1 CAB        -24.8960    -7.7510     5.0120 ca         1 2I8      -0.030000
      2 CAC        -25.5280    -6.7140     5.6680 ca         1 2I8      -0.150000
      3 CAD        -25.0600    -5.3860     5.5660 ca         1 2I8      -0.070000
      4 CAE        -23.9600    -5.0640     4.7980 ca         1 2I8      -0.138000
      5 CAF        -23.7620    -7.4600     4.2340 ca         1 2I8      -0.214900
      6 CAG        -23.3240    -6.1180     4.1310 ca         1 2I8      -0.035200
      7 CAJ        -24.3250   -15.3640     5.9750 c3         1 2I8      -0.097100
      8 CAL        -24.6190   -14.0290     6.6530 c3         1 2I8      -0.163400
      9 CAN        -21.4170   -11.5890    -2.0830 c3         1 2I8       0.094700
     10 CAO        -21.3190   -10.4000    -2.9740 cc         1 2I8       0.163300
     11 CAP        -22.1740    -9.9730    -3.9620 cd         1 2I8      -0.177000
     12 CAT        -22.1180    -7.9590    -5.4460 ca         1 2I8      -0.015200
     13 CAU        -22.0940    -8.4160    -6.7580 ca         1 2I8      -0.093000
     14 CAV        -23.0880    -5.9000    -6.1440 ca         1 2I8      -0.109000
     15 CAW        -24.2970   -12.7490     5.9010 c          1 2I8       0.606100
     16 CAZ        -22.8600    -8.1990     3.3970 cc         1 2I8       0.400500
     17 CBA        -23.2460   -11.9210     3.7870 ca         1 2I8      -0.033000
     18 CBB        -22.5760    -7.6020    -7.7750 ca         1 2I8      -0.108000
     19 CBC        -23.0710    -6.3400    -7.4630 ca         1 2I8      -0.091000
     20 CBD        -22.6160    -6.7000    -5.1020 ca         1 2I8      -0.043300
     21 CBE        -22.6580    -6.2230    -3.6770 c3         1 2I8      -0.052800
     22 CBF        -22.3110   -11.4590     1.6070 ca         1 2I8      -0.121600
     23 CBG        -22.8360    -9.6360     3.1030 ca         1 2I8      -0.073900
     24 CBH        -23.2830   -10.5520     4.0580 ca         1 2I8      -0.102000
     25 CBI        -22.7500   -12.3690     2.5620 ca         1 2I8      -0.112000
     26 CBJ        -22.3550   -10.0940     1.8750 ca         1 2I8      -0.089000
     27 NAA        -21.8960   -11.1980    -0.7610 ns         1 2I8      -0.498900
     28 NAH        -22.2540    -6.1360     3.2900 na         1 2I8      -0.069400
     29 NAI        -21.9720    -7.3790     2.8480 nd         1 2I8      -0.508100
     30 NAQ        -21.6260    -8.8250    -4.4190 na         1 2I8       0.203000
     31 NAR        -20.4860    -8.5470    -3.7540 nd         1 2I8      -0.184800
     32 NAS        -20.3030    -9.4970    -2.8830 nc         1 2I8      -0.341000
     33 OAK        -24.5940   -11.6570     6.3790 o          1 2I8      -0.598100
     34 OAM        -21.2850   -13.1300     0.2410 o          1 2I8      -0.612100
     35 H1         -25.2740    -8.7600     5.0940 ha         1 2I8       0.131000
     36 H2         -26.4020    -6.9180     6.2730 ha         1 2I8       0.117000
     37 H3         -25.5830    -4.6010     6.0980 ha         1 2I8       0.113000
     38 H4         -23.6050    -4.0460     4.7070 ha         1 2I8       0.119000
     39 H5         -24.6260   -16.1820     6.6290 hc         1 2I8       0.042367
     40 H6         -24.8770   -15.4710     5.0390 hc         1 2I8       0.042367
     41 H7         -23.2600   -15.4890     5.7670 hc         1 2I8       0.042367
     42 H8         -25.6780   -13.9590     6.9120 hc         1 2I8       0.076200
     43 H9         -24.0750   -13.9580     7.5990 hc         1 2I8       0.076200
     44 H10        -22.0860   -12.3290    -2.5290 h1         1 2I8       0.065700
     45 H11        -20.4390   -12.0570    -1.9680 h1         1 2I8       0.065700
     46 H12        -23.0940   -10.3700    -4.3520 h4         1 2I8       0.171000
     47 H13        -21.6970    -9.3990    -6.9710 ha         1 2I8       0.129000
     48 H14        -23.4850    -4.9200    -5.9100 ha         1 2I8       0.122000
     49 H15        -22.5630    -7.9500    -8.7990 ha         1 2I8       0.124000
     50 H16        -23.4480    -5.6970    -8.2470 ha         1 2I8       0.121000
     51 H17        -23.0380    -7.0000    -3.0100 hc         1 2I8       0.054367
     52 H18        -21.6610    -5.9550    -3.3220 hc         1 2I8       0.054367
     53 H19        -23.2980    -5.3460    -3.5900 hc         1 2I8       0.054367
     54 H20        -23.6330   -10.2170     5.0170 ha         1 2I8       0.156000
     55 H21        -22.7100   -13.4280     2.3450 ha         1 2I8       0.132000
     56 H22        -22.0020    -9.3730     1.1510 ha         1 2I8       0.132000
     57 H23        -22.4270   -10.3460    -0.6890 hn         1 2I8       0.320500
     58 H24        -21.6780    -5.3610     3.0020 hn         1 2I8       0.378000
     59 H25        -23.5030   -13.8500     4.4060 hn         1 2I8       0.157000
     60 NAY        -23.6700   -12.9000     4.7020 ns         1 2I8      -0.147000
     61 CAX        -21.7880   -12.0060     0.3110 c          1 2I8       0.611700
@<TRIPOS>BOND
     1     1     2 ar  
     2     1     5 ar  
     3     1    35 1   
     4     2     3 ar  
     5     2    36 1   
     6     3     4 ar  
     7     3    37 1   
     8     4     6 ar  
     9     4    38 1   
    10     5     6 ar  
    11     5    16 1   
    12     6    28 1   
    13     7     8 1   
    14     7    39 1   
    15     7    40 1   
    16     7    41 1   
    17     8    15 1   
    18     8    42 1   
    19     8    43 1   
    20     9    10 1   
    21     9    27 1   
    22     9    44 1   
    23     9    45 1   
    24    10    11 2   
    25    10    32 1   
    26    11    30 1   
    27    11    46 1   
    28    12    13 ar  
    29    12    20 ar  
    30    12    30 1   
    31    13    18 ar  
    32    13    47 1   
    33    14    19 ar  
    34    14    20 ar  
    35    14    48 1   
    36    15    33 2   
    37    15    60 1   
    38    16    23 1   
    39    16    29 2   
    40    17    24 ar  
    41    17    25 ar  
    42    17    60 1   
    43    18    19 ar  
    44    18    49 1   
    45    19    50 1   
    46    20    21 1   
    47    21    51 1   
    48    21    52 1   
    49    21    53 1   
    50    22    25 ar  
    51    22    26 ar  
    52    22    61 1   
    53    23    24 ar  
    54    23    26 ar  
    55    24    54 1   
    56    25    55 1   
    57    26    56 1   
    58    27    57 1   
    59    27    61 1   
    60    28    29 1   
    61    28    58 1   
    62    30    31 1   
    63    31    32 2   
    64    34    61 2   
    65    59    60 1   
@<TRIPOS>SUBSTRUCTURE
     1 2I8         1 TEMP              0 ****  ****    0 ROOT
