@<TRIPOS>MOLECULE
2I8
   61    65     1     0     0
SMALL
No Charge or Current Charge


@<TRIPOS>ATOM
      1 CAB        -25.0910    -8.0000     4.5290 ca         1 2I8      -0.030000
      2 CAC        -25.8790    -7.0310     5.1880 ca         1 2I8      -0.150000
      3 CAD        -25.5260    -5.6600     5.1400 ca         1 2I8      -0.070000
      4 CAE        -24.3850    -5.2440     4.4200 ca         1 2I8      -0.138000
      5 CAF        -23.9430    -7.5540     3.8520 ca         1 2I8      -0.214900
      6 CAG        -23.6230    -6.2320     3.7870 ca         1 2I8      -0.035200
      7 CAJ        -25.3970   -14.7070     6.8130 c3         1 2I8      -0.097100
      8 CAL        -23.9710   -14.1100     6.7650 c3         1 2I8      -0.163400
      9 CAN        -21.0400   -11.6230    -2.2750 c3         1 2I8       0.094700
     10 CAO        -20.9100   -10.4350    -3.1940 cc         1 2I8       0.163300
     11 CAP        -21.9120    -9.7650    -3.8310 cd         1 2I8      -0.177000
     12 CAT        -21.9240    -7.8830    -5.2680 ca         1 2I8      -0.015200
     13 CAU        -22.0620    -8.1330    -6.6480 ca         1 2I8      -0.093000
     14 CAV        -23.2260    -5.8370    -5.5280 ca         1 2I8      -0.109000
     15 CAW        -23.9230   -12.8050     5.9580 c          1 2I8       0.606100
     16 CAZ        -22.9410    -8.2280     3.0500 cc         1 2I8       0.400500
     17 CBA        -23.0380   -11.9700     3.6930 ca         1 2I8      -0.033000
     18 CBB        -22.7770    -7.2410    -7.4630 ca         1 2I8      -0.108000
     19 CBC        -23.3600    -6.0930    -6.9030 ca         1 2I8      -0.091000
     20 CBD        -22.5090    -6.7250    -4.7000 ca         1 2I8      -0.043300
     21 CBE        -22.3780    -6.4200    -3.2090 c3         1 2I8      -0.052800
     22 CBF        -22.2920   -11.5820     1.3830 ca         1 2I8      -0.121600
     23 CBG        -22.8680    -9.6810     2.8350 ca         1 2I8      -0.073900
     24 CBH        -23.1430   -10.5780     3.8870 ca         1 2I8      -0.102000
     25 CBI        -22.6150   -12.4580     2.4440 ca         1 2I8      -0.112000
     26 CBJ        -22.4170   -10.1890     1.5990 ca         1 2I8      -0.089000
     27 NAA        -21.5030   -11.2540    -0.9320 ns         1 2I8      -0.498900
     28 NAH        -22.5080    -6.1180     2.9850 na         1 2I8      -0.069400
     29 NAI        -22.0770    -7.3590     2.4980 nd         1 2I8      -0.508100
     30 NAQ        -21.2110    -8.7880    -4.4830 na         1 2I8       0.203000
     31 NAR        -19.8660    -8.8530    -4.2790 nd         1 2I8      -0.184800
     32 NAS        -19.6860    -9.8730    -3.4720 nc         1 2I8      -0.341000
     33 OAK        -24.3760   -11.7590     6.4100 o          1 2I8      -0.598100
     34 OAM        -21.7400   -13.3620    -0.1420 o          1 2I8      -0.612100
     35 H1         -25.3790    -9.0490     4.5430 ha         1 2I8       0.131000
     36 H2         -26.7700    -7.3400     5.7290 ha         1 2I8       0.117000
     37 H3         -26.1450    -4.9220     5.6460 ha         1 2I8       0.113000
     38 H4         -24.1150    -4.1920     4.3540 ha         1 2I8       0.119000
     39 H5         -25.4040   -15.6360     7.3960 hc         1 2I8       0.042367
     40 H6         -26.0980   -14.0050     7.2800 hc         1 2I8       0.042367
     41 H7         -25.7570   -14.9350     5.8020 hc         1 2I8       0.042367
     42 H8         -23.6530   -13.8970     7.7920 hc         1 2I8       0.076200
     43 H9         -23.3010   -14.8540     6.3180 hc         1 2I8       0.076200
     44 H10        -21.7530   -12.3340    -2.7140 h1         1 2I8       0.065700
     45 H11        -20.0690   -12.1280    -2.1900 h1         1 2I8       0.065700
     46 H12        -22.9860    -9.8930    -3.8600 h4         1 2I8       0.171000
     47 H13        -21.6130    -9.0210    -7.0870 ha         1 2I8       0.129000
     48 H14        -23.6820    -4.9440    -5.1070 ha         1 2I8       0.122000
     49 H15        -22.8800    -7.4390    -8.5280 ha         1 2I8       0.124000
     50 H16        -23.9150    -5.4020    -7.5340 ha         1 2I8       0.121000
     51 H17        -22.8780    -7.1870    -2.6050 hc         1 2I8       0.054367
     52 H18        -21.3250    -6.3860    -2.9040 hc         1 2I8       0.054367
     53 H19        -22.8250    -5.4540    -2.9490 hc         1 2I8       0.054367
     54 H20        -23.4080   -10.1760     4.8590 ha         1 2I8       0.156000
     55 H21        -22.5270   -13.5330     2.2990 ha         1 2I8       0.132000
     56 H22        -22.1800    -9.4810     0.8100 ha         1 2I8       0.132000
     57 H23        -21.5810   -10.2720    -0.7030 hn         1 2I8       0.320500
     58 H24        -22.0330    -5.2510     2.7350 hn         1 2I8       0.378000
     59 H25        -23.0190   -13.8630     4.4870 hn         1 2I8       0.157000
     60 NAY        -23.3170   -12.9230     4.7130 ns         1 2I8      -0.147000
     61 CAX        -21.8270   -12.1570     0.0570 c          1 2I8       0.611700
@<TRIPOS>BOND
     1     1     2 ar  
     2     1     5 ar  
     3     1    35 1   
     4     2     3 ar  
     5     2    36 1   
     6     3     4 ar  
     7     3    37 1   
     8     4     6 ar  
     9     4    38 1   
    10     5     6 ar  
    11     5    16 1   
    12     6    28 1   
    13     7     8 1   
    14     7    39 1   
    15     7    40 1   
    16     7    41 1   
    17     8    15 1   
    18     8    42 1   
    19     8    43 1   
    20     9    10 1   
    21     9    27 1   
    22     9    44 1   
    23     9    45 1   
    24    10    11 2   
    25    10    32 1   
    26    11    30 1   
    27    11    46 1   
    28    12    13 ar  
    29    12    20 ar  
    30    12    30 1   
    31    13    18 ar  
    32    13    47 1   
    33    14    19 ar  
    34    14    20 ar  
    35    14    48 1   
    36    15    33 2   
    37    15    60 1   
    38    16    23 1   
    39    16    29 2   
    40    17    24 ar  
    41    17    25 ar  
    42    17    60 1   
    43    18    19 ar  
    44    18    49 1   
    45    19    50 1   
    46    20    21 1   
    47    21    51 1   
    48    21    52 1   
    49    21    53 1   
    50    22    25 ar  
    51    22    26 ar  
    52    22    61 1   
    53    23    24 ar  
    54    23    26 ar  
    55    24    54 1   
    56    25    55 1   
    57    26    56 1   
    58    27    57 1   
    59    27    61 1   
    60    28    29 1   
    61    28    58 1   
    62    30    31 1   
    63    31    32 2   
    64    34    61 2   
    65    59    60 1   
@<TRIPOS>SUBSTRUCTURE
     1 2I8         1 TEMP              0 ****  ****    0 ROOT
