@<TRIPOS>MOLECULE
2I9
   64    67     1     0     0
SMALL
No Charge or Current Charge


@<TRIPOS>ATOM
      1 C10         -2.1990   -18.8210     4.5870 cc         1 2I9       0.112900
      2 C12         -2.7040   -16.3400     3.9450 ca         1 2I9      -0.065800
      3 C13         -2.3210   -18.4120     6.8430 ca         1 2I9       0.087100
      4 C14         -3.0910   -18.2850     8.0120 ca         1 2I9      -0.120500
      5 C15         -2.5060   -17.8540     9.2150 ca         1 2I9      -0.143000
      6 C16         -1.1390   -17.5470     9.2720 ca         1 2I9       0.109100
      7 C17         -0.3520   -17.6710     8.1070 ca         1 2I9      -0.143000
      8 C18         -0.9350   -18.1020     6.9000 ca         1 2I9      -0.120500
      9 C20          0.7610   -16.7600    10.6450 c3         1 2I9       0.122600
     10 C21          1.0160   -16.3920    12.1340 c3         1 2I9       0.166800
     11 C01         -0.4790   -22.1860     4.2410 ca         1 2I9      -0.205000
     12 C02          0.3290   -21.8670     3.1290 ca         1 2I9       0.153100
     13 C03          0.2730   -20.5840     2.5540 ca         1 2I9      -0.129000
     14 C04         -0.6000   -19.6340     3.1060 ca         1 2I9      -0.120000
     15 C05         -1.3920   -19.9460     4.1900 ca         1 2I9      -0.128800
     16 C06         -1.3510   -21.2190     4.7820 ca         1 2I9      -0.016000
     17 C09         -2.0120   -17.6570     3.8450 cd         1 2I9       0.003400
     18 C23          0.1260   -18.5240    13.2000 c3         1 2I9       0.191000
     19 C24         -1.0500   -17.8390    13.8700 c2         1 2I9      -0.152200
     20 C25         -2.3660   -18.1630    13.7710 ce         1 2I9      -0.287200
     21 C26         -2.9370   -19.2640    12.9290 c          1 2I9       0.611300
     22 C29         -4.9640   -17.8050    12.4920 c3         1 2I9       0.086300
     23 C30         -4.7990   -20.1220    11.4820 c3         1 2I9       0.086300
     24 C31         -2.1890   -15.2210     3.2470 ca         1 2I9      -0.048000
     25 C32         -2.8170   -13.9660     3.3250 ca         1 2I9      -0.179000
     26 C33         -3.9740   -13.8030     4.0930 ca         1 2I9       0.148100
     27 C34         -4.5090   -14.8970     4.7830 ca         1 2I9      -0.179000
     28 C35         -3.8830   -16.1550     4.7100 ca         1 2I9      -0.048000
     29 N22          1.2480   -17.5740    13.0210 n7         1 2I9      -0.881400
     30 N27         -4.2090   -19.0700    12.3410 n          1 2I9      -0.401800
     31 O07          1.1710   -22.8040     2.6090 oh         1 2I9      -0.532100
     32 O11         -2.9930   -18.8430     5.7040 os         1 2I9      -0.224200
     33 O19         -0.6220   -17.1350    10.4820 os         1 2I9      -0.348100
     34 O28         -2.2980   -20.2830    12.6980 o          1 2I9      -0.608100
     35 O36         -4.5760   -12.5820     4.1600 oh         1 2I9      -0.531100
     36 S08         -0.8140   -17.9580     2.5350 ss         1 2I9       0.075400
     37 H1          -4.1520   -18.5200     7.9840 ha         1 2I9       0.131000
     38 H2          -3.1150   -17.7550    10.1090 ha         1 2I9       0.131500
     39 H3           0.7100   -17.4420     8.1190 ha         1 2I9       0.131500
     40 H4          -0.2890   -18.1890     6.0310 ha         1 2I9       0.131000
     41 H5           1.4340   -17.5730    10.3440 h1         1 2I9       0.034700
     42 H6           0.9820   -15.8820    10.0230 h1         1 2I9       0.034700
     43 H7           1.9040   -15.7460    12.1620 h1         1 2I9       0.060200
     44 H8           0.1780   -15.7810    12.4970 h1         1 2I9       0.060200
     45 H9          -0.4370   -23.1760     4.6880 ha         1 2I9       0.116000
     46 H10          0.8970   -20.3350     1.6990 ha         1 2I9       0.138000
     47 H11         -1.9770   -21.4530     5.6410 ha         1 2I9       0.128000
     48 H12         -0.1780   -18.9450    12.2320 h1         1 2I9       0.057700
     49 H13          0.4430   -19.3680    13.8290 h1         1 2I9       0.057700
     50 H14         -0.7560   -16.9930    14.4920 ha         1 2I9       0.178000
     51 H15         -3.0920   -17.5250    14.2680 ha         1 2I9       0.188000
     52 H16         -4.3090   -16.9500    12.2800 h1         1 2I9       0.040533
     53 H17         -5.8090   -17.7730    11.7930 h1         1 2I9       0.040533
     54 H18         -5.3490   -17.7250    13.5160 h1         1 2I9       0.040533
     55 H19         -5.8480   -19.8950    11.2540 h1         1 2I9       0.040533
     56 H20         -4.2350   -20.1890    10.5430 h1         1 2I9       0.040533
     57 H21         -4.7560   -21.0900    11.9980 h1         1 2I9       0.040533
     58 H22         -1.2850   -15.3020     2.6500 ha         1 2I9       0.120500
     59 H23         -2.4010   -13.1180     2.7870 ha         1 2I9       0.122000
     60 H24         -5.4140   -14.7860     5.3750 ha         1 2I9       0.122000
     61 H25         -4.3520   -16.9780     5.2360 ha         1 2I9       0.120500
     62 H26          2.0480   -18.1000    12.6450 hn         1 2I9       0.420000
     63 H28          1.0760   -23.6280     3.1320 ho         1 2I9       0.468000
     64 H29         -5.3660   -12.6570     4.7370 ho         1 2I9       0.466000
@<TRIPOS>BOND
     1     1    15 1   
     2     1    17 2   
     3     1    32 1   
     4     2    17 1   
     5     2    24 ar  
     6     2    28 ar  
     7     3     4 ar  
     8     3     8 ar  
     9     3    32 1   
    10     4     5 ar  
    11     4    37 1   
    12     5     6 ar  
    13     5    38 1   
    14     6     7 ar  
    15     6    33 1   
    16     7     8 ar  
    17     7    39 1   
    18     8    40 1   
    19     9    10 1   
    20     9    33 1   
    21     9    41 1   
    22     9    42 1   
    23    10    29 1   
    24    10    43 1   
    25    10    44 1   
    26    11    12 ar  
    27    11    16 ar  
    28    11    45 1   
    29    12    13 ar  
    30    12    31 1   
    31    13    14 ar  
    32    13    46 1   
    33    14    15 ar  
    34    14    36 1   
    35    15    16 ar  
    36    16    47 1   
    37    17    36 1   
    38    18    19 1   
    39    18    29 1   
    40    18    48 1   
    41    18    49 1   
    42    19    20 2   
    43    19    50 1   
    44    20    21 1   
    45    20    51 1   
    46    21    30 1   
    47    21    34 2   
    48    22    30 1   
    49    22    52 1   
    50    22    53 1   
    51    22    54 1   
    52    23    30 1   
    53    23    55 1   
    54    23    56 1   
    55    23    57 1   
    56    24    25 ar  
    57    24    58 1   
    58    25    26 ar  
    59    25    59 1   
    60    26    27 ar  
    61    26    35 1   
    62    27    28 ar  
    63    27    60 1   
    64    28    61 1   
    65    29    62 1   
    66    31    63 1   
    67    35    64 1   
@<TRIPOS>SUBSTRUCTURE
     1 2I9         1 TEMP              0 ****  ****    0 ROOT
