@<TRIPOS>MOLECULE
2I9
   64    67     1     0     0
SMALL
abcg2


@<TRIPOS>ATOM
      1 C10         -1.9230   -18.6890     4.4110 cc         1 2I9       0.112900
      2 C12         -3.2330   -16.7490     3.4060 ca         1 2I9      -0.065800
      3 C13         -2.2210   -18.5840     6.7400 ca         1 2I9       0.087100
      4 C14         -2.9240   -19.0990     7.8240 ca         1 2I9      -0.120500
      5 C15         -2.4960   -18.8420     9.1120 ca         1 2I9      -0.143000
      6 C16         -1.3580   -18.0640     9.3410 ca         1 2I9       0.109100
      7 C17         -0.6650   -17.5470     8.2520 ca         1 2I9      -0.143000
      8 C18         -1.0970   -17.8070     6.9540 ca         1 2I9      -0.120500
      9 C20          0.2720   -17.3370    10.9180 c3         1 2I9       0.122600
     10 C21          0.5810   -17.4940    12.3970 c3         1 2I9       0.166800
     11 C01          0.8060   -21.3060     4.3590 ca         1 2I9      -0.205000
     12 C02          1.3920   -20.9510     3.1310 ca         1 2I9       0.153100
     13 C03          0.8830   -19.8950     2.3900 ca         1 2I9      -0.129000
     14 C04         -0.2100   -19.2060     2.8980 ca         1 2I9      -0.120000
     15 C05         -0.8010   -19.5380     4.1250 ca         1 2I9      -0.128800
     16 C06         -0.2780   -20.6120     4.8510 ca         1 2I9      -0.016000
     17 C09         -2.1710   -17.7510     3.4610 cd         1 2I9       0.003400
     18 C23         -0.3210   -19.6920    13.0920 c3         1 2I9       0.191000
     19 C24         -1.0700   -19.2320    14.3050 c2         1 2I9      -0.152200
     20 C25         -2.3200   -18.7790    14.3610 ce         1 2I9      -0.287200
     21 C26         -3.2610   -18.7400    13.2030 c          1 2I9       0.611300
     22 C29         -3.2980   -16.2830    13.4180 c3         1 2I9       0.086300
     23 C30         -4.7830   -17.4210    11.8550 c3         1 2I9       0.086300
     24 C31         -3.9190   -16.5020     2.2140 ca         1 2I9      -0.048000
     25 C32         -4.9260   -15.5580     2.1430 ca         1 2I9      -0.179000
     26 C33         -5.2800   -14.8290     3.2770 ca         1 2I9       0.148100
     27 C34         -4.6010   -15.0590     4.4720 ca         1 2I9      -0.179000
     28 C35         -3.5900   -16.0040     4.5310 ca         1 2I9      -0.048000
     29 N22          0.8370   -18.8320    12.8870 n7         1 2I9      -0.881400
     30 N27         -3.8060   -17.5400    12.9150 n          1 2I9      -0.401800
     31 O07          2.4520   -21.6090     2.6260 oh         1 2I9      -0.532100
     32 O11         -2.7210   -18.8730     5.4950 os         1 2I9      -0.224200
     33 O19         -1.0110   -17.8680    10.6300 os         1 2I9      -0.348100
     34 O28         -3.5510   -19.7640    12.5920 o          1 2I9      -0.608100
     35 O36         -6.2690   -13.9260     3.1590 oh         1 2I9      -0.531100
     36 S08         -1.0250   -17.8740     2.1460 ss         1 2I9       0.075400
     37 H1          -3.8020   -19.7100     7.6580 ha         1 2I9       0.131000
     38 H2          -3.0370   -19.2560     9.9530 ha         1 2I9       0.131500
     39 H3           0.2140   -16.9320     8.3840 ha         1 2I9       0.131500
     40 H4          -0.5380   -17.3910     6.1250 ha         1 2I9       0.131000
     41 H5           1.0400   -17.8520    10.3260 h1         1 2I9       0.034700
     42 H6           0.3140   -16.2730    10.6520 h1         1 2I9       0.034700
     43 H7           1.4700   -16.8840    12.5830 h1         1 2I9       0.060200
     44 H8          -0.2190   -17.0420    12.9910 h1         1 2I9       0.060200
     45 H9           1.2100   -22.1380     4.9250 ha         1 2I9       0.116000
     46 H10          1.3290   -19.6260     1.4400 ha         1 2I9       0.138000
     47 H11         -0.7180   -20.9040     5.7950 ha         1 2I9       0.128000
     48 H12         -0.9790   -19.7790    12.2260 h1         1 2I9       0.057700
     49 H13          0.0610   -20.6970    13.2960 h1         1 2I9       0.057700
     50 H14         -0.4890   -19.2230    15.2220 ha         1 2I9       0.178000
     51 H15         -2.7080   -18.4270    15.3120 ha         1 2I9       0.188000
     52 H16         -2.5580   -16.4360    14.1970 h1         1 2I9       0.040533
     53 H17         -2.8230   -15.7150    12.6140 h1         1 2I9       0.040533
     54 H18         -4.1100   -15.6800    13.8260 h1         1 2I9       0.040533
     55 H19         -5.5200   -16.6660    12.1290 h1         1 2I9       0.040533
     56 H20         -4.3160   -17.1140    10.9150 h1         1 2I9       0.040533
     57 H21         -5.2950   -18.3640    11.6950 h1         1 2I9       0.040533
     58 H22         -3.6730   -17.0680     1.3230 ha         1 2I9       0.120500
     59 H23         -5.4460   -15.3870     1.2090 ha         1 2I9       0.122000
     60 H24         -4.8540   -14.4910     5.3610 ha         1 2I9       0.122000
     61 H25         -3.0610   -16.1360     5.4650 ha         1 2I9       0.120500
     62 H26          1.5140   -19.2980    12.2970 hn         1 2I9       0.420000
     63 H28          2.7250   -22.3230     3.2140 ho         1 2I9       0.468000
     64 H29         -6.4280   -13.4850     4.0020 ho         1 2I9       0.466000
@<TRIPOS>BOND
     1     1    15 1   
     2     1    17 2   
     3     1    32 1   
     4     2    17 1   
     5     2    24 ar  
     6     2    28 ar  
     7     3     4 ar  
     8     3     8 ar  
     9     3    32 1   
    10     4     5 ar  
    11     4    37 1   
    12     5     6 ar  
    13     5    38 1   
    14     6     7 ar  
    15     6    33 1   
    16     7     8 ar  
    17     7    39 1   
    18     8    40 1   
    19     9    10 1   
    20     9    33 1   
    21     9    41 1   
    22     9    42 1   
    23    10    29 1   
    24    10    43 1   
    25    10    44 1   
    26    11    12 ar  
    27    11    16 ar  
    28    11    45 1   
    29    12    13 ar  
    30    12    31 1   
    31    13    14 ar  
    32    13    46 1   
    33    14    15 ar  
    34    14    36 1   
    35    15    16 ar  
    36    16    47 1   
    37    17    36 1   
    38    18    19 1   
    39    18    29 1   
    40    18    48 1   
    41    18    49 1   
    42    19    20 2   
    43    19    50 1   
    44    20    21 1   
    45    20    51 1   
    46    21    30 1   
    47    21    34 2   
    48    22    30 1   
    49    22    52 1   
    50    22    53 1   
    51    22    54 1   
    52    23    30 1   
    53    23    55 1   
    54    23    56 1   
    55    23    57 1   
    56    24    25 ar  
    57    24    58 1   
    58    25    26 ar  
    59    25    59 1   
    60    26    27 ar  
    61    26    35 1   
    62    27    28 ar  
    63    27    60 1   
    64    28    61 1   
    65    29    62 1   
    66    31    63 1   
    67    35    64 1   
@<TRIPOS>SUBSTRUCTURE
     1 2I9         1 TEMP              0 ****  ****    0 ROOT
