@<TRIPOS>MOLECULE
2IB
   15    15     1     0     0
SMALL
No Charge or Current Charge


@<TRIPOS>ATOM
      1 C            0.7530     2.3020     0.0110 c3         1 2IB      -0.054800
      2 C1           1.4490     0.9460     0.0020 ca         1 2IB      -0.042300
      3 C2           0.7080    -0.2560    -0.0690 ca         1 2IB       0.199000
      4 C3           1.3690    -1.4960    -0.0760 ca         1 2IB      -0.079000
      5 C4           2.7720    -1.5500    -0.0130 ca         1 2IB      -0.116000
      6 C5           3.5150    -0.3600     0.0580 ca         1 2IB      -0.092000
      7 C6           2.8560     0.8820     0.0650 ca         1 2IB      -0.115000
      8 I2          -1.4670    -0.2420    -0.1690 i          1 2IB      -0.326000
      9 H1           0.1610     2.4490    -0.9010 hc         1 2IB       0.051367
     10 H2           0.0790     2.3950     0.8710 hc         1 2IB       0.051367
     11 H3A          1.4710     3.1280     0.0690 hc         1 2IB       0.051367
     12 H3           0.7920    -2.4150    -0.1310 ha         1 2IB       0.126000
     13 H4           3.2820    -2.5120    -0.0180 ha         1 2IB       0.117000
     14 H5           4.6010    -0.4000     0.1070 ha         1 2IB       0.116000
     15 H6           3.4440     1.7960     0.1200 ha         1 2IB       0.114000
@<TRIPOS>BOND
     1     1     2 1   
     2     1     9 1   
     3     1    10 1   
     4     1    11 1   
     5     2     3 ar  
     6     2     7 ar  
     7     3     4 ar  
     8     3     8 1   
     9     4     5 ar  
    10     4    12 1   
    11     5     6 ar  
    12     5    13 1   
    13     6     7 ar  
    14     6    14 1   
    15     7    15 1   
@<TRIPOS>SUBSTRUCTURE
     1 2IB         1 TEMP              0 ****  ****    0 ROOT
