@<TRIPOS>MOLECULE
2IB
   15    15     1     0     0
SMALL
abcg2


@<TRIPOS>ATOM
      1 C            0.7650     2.2920     0.0110 c3         1 2IB      -0.054800
      2 C1           1.4320     0.9500     0.0030 ca         1 2IB      -0.042300
      3 C2           0.7310    -0.2550    -0.0630 ca         1 2IB       0.199000
      4 C3           1.3730    -1.4860    -0.0720 ca         1 2IB      -0.079000
      5 C4           2.7580    -1.5340    -0.0130 ca         1 2IB      -0.116000
      6 C5           3.4840    -0.3550     0.0540 ca         1 2IB      -0.092000
      7 C6           2.8240     0.8640     0.0620 ca         1 2IB      -0.115000
      8 I2          -1.3790    -0.2540    -0.1570 i          1 2IB      -0.326000
      9 H1           0.1920     2.4600    -0.9030 hc         1 2IB       0.051367
     10 H2           0.0720     2.3930     0.8480 hc         1 2IB       0.051367
     11 H3A          1.5030     3.0880     0.0900 hc         1 2IB       0.051367
     12 H3           0.8060    -2.4050    -0.1260 ha         1 2IB       0.126000
     13 H4           3.2600    -2.4930    -0.0210 ha         1 2IB       0.117000
     14 H5           4.5650    -0.3810     0.0990 ha         1 2IB       0.116000
     15 H6           3.3980     1.7810     0.1160 ha         1 2IB       0.114000
@<TRIPOS>BOND
     1     1     2 1   
     2     1     9 1   
     3     1    10 1   
     4     1    11 1   
     5     2     3 ar  
     6     2     7 ar  
     7     3     4 ar  
     8     3     8 1   
     9     4     5 ar  
    10     4    12 1   
    11     5     6 ar  
    12     5    13 1   
    13     6     7 ar  
    14     6    14 1   
    15     7    15 1   
@<TRIPOS>SUBSTRUCTURE
     1 2IB         1 TEMP              0 ****  ****    0 ROOT
