@<TRIPOS>MOLECULE
2IE
   60    63     1     0     0
SMALL
No Charge or Current Charge


@<TRIPOS>ATOM
      1 C2         -17.6590     7.8090     3.5650 ca         1 2IE       0.607300
      2 C3         -17.4940     7.1470     2.3270 ca         1 2IE      -0.220600
      3 C8         -18.5260     6.2300     1.7250 c          1 2IE       0.630700
      4 C11        -18.8400     7.4470     5.6480 ca         1 2IE       0.094100
      5 C12        -17.8550     6.6610     6.2820 ca         1 2IE      -0.085000
      6 C13        -17.9190     6.4410     7.6700 ca         1 2IE      -0.129000
      7 C14        -18.9710     6.9870     8.4240 ca         1 2IE       0.122100
      8 C15        -19.9560     7.7720     7.7910 ca         1 2IE      -0.129000
      9 C16        -19.8920     7.9920     6.4020 ca         1 2IE      -0.085000
     10 O17        -19.0020     6.7660     9.7820 os         1 2IE      -0.254200
     11 C19        -21.2160     5.7860     9.9360 ca         1 2IE      -0.145000
     12 C20        -22.3940     5.5760    10.6750 ca         1 2IE      -0.085500
     13 C21        -22.5220     6.1300    11.9610 ca         1 2IE      -0.130000
     14 C22        -21.4740     6.8880    12.5110 ca         1 2IE      -0.085500
     15 C24        -13.9840     8.4700     1.4370 c6         1 2IE      -0.032400
     16 N26        -12.9000     9.3650    -0.6370 n          1 2IE      -0.405800
     17 C27        -12.1010     8.1240    -0.8270 c6         1 2IE       0.095000
     18 C30        -12.3990    10.6770    -0.8330 c          1 2IE       0.600100
     19 C32        -11.0370    10.8590    -1.5370 c3         1 2IE      -0.153400
     20 C33        -10.6110    12.3190    -1.8190 c3         1 2IE      -0.077100
     21 N1         -16.7260     8.6390     4.0800 nb         1 2IE      -0.740000
     22 C4         -16.2880     7.3560     1.6220 ca         1 2IE      -0.001000
     23 C5         -15.3120     8.2100     2.1640 ca         1 2IE      -0.169300
     24 C6         -15.5820     8.8280     3.3950 ca         1 2IE       0.404900
     25 O7         -18.8200     7.6610     4.2880 os         1 2IE      -0.392400
     26 O9         -18.3430     5.6710     0.6570 o          1 2IE      -0.623100
     27 N10        -19.6900     6.0020     2.3630 nt         1 2IE      -0.595000
     28 C18        -20.1700     6.5580    10.4800 ca         1 2IE       0.120100
     29 C23        -20.2970     7.0980    11.7710 ca         1 2IE      -0.145000
     30 C25        -14.2020     9.1110     0.0390 c6         1 2IE       0.092000
     31 C28        -11.8170     7.4500     0.5360 c6         1 2IE      -0.103400
     32 C29        -13.1350     7.1760     1.3030 c6         1 2IE      -0.071400
     33 O31        -13.0480    11.6500    -0.4700 o          1 2IE      -0.599100
     34 H1         -17.0450     6.2200     5.7070 ha         1 2IE       0.130000
     35 H2         -17.1570     5.8400     8.1620 ha         1 2IE       0.133500
     36 H3         -20.7640     8.2110     8.3690 ha         1 2IE       0.133500
     37 H4         -20.6550     8.5920     5.9110 ha         1 2IE       0.130000
     38 H6         -23.2030     4.9840    10.2540 ha         1 2IE       0.115500
     39 H7         -23.4330     5.9670    12.5340 ha         1 2IE       0.117000
     40 H8         -21.5730     7.3120    13.5090 ha         1 2IE       0.115500
     41 H9         -13.4000     9.1870     2.0310 hc         1 2IE       0.062700
     42 H10        -11.1520     8.3140    -1.3440 h1         1 2IE       0.053200
     43 H11        -12.6720     7.4300    -1.4620 h1         1 2IE       0.053200
     44 H12        -11.0450    10.2630    -2.4560 hc         1 2IE       0.054700
     45 H14         -9.6360    12.3420    -2.3210 hc         1 2IE       0.041700
     46 H15        -11.3410    12.8190    -2.4660 hc         1 2IE       0.041700
     47 H17        -16.1110     6.8630     0.6680 ha         1 2IE       0.148000
     48 H18        -14.8570     9.5010     3.8520 h4         1 2IE       0.027100
     49 H19        -20.3700     5.3850     1.9460 hn         1 2IE       0.325000
     50 H20        -19.8720     6.4540     3.2480 hn         1 2IE       0.325000
     51 H21        -19.4840     7.6820    12.1950 ha         1 2IE       0.127500
     52 H22        -14.7780    10.0410     0.1490 h1         1 2IE       0.068700
     53 H23        -14.8010     8.4390    -0.5910 h1         1 2IE       0.068700
     54 H24        -11.2690     6.5110     0.3810 hc         1 2IE       0.049700
     55 H25        -11.1650     8.1000     1.1360 hc         1 2IE       0.049700
     56 H26        -13.7060     6.4010     0.7740 hc         1 2IE       0.047700
     57 H27        -12.9080     6.7710     2.2990 hc         1 2IE       0.047700
     58 H13        -10.2780    10.3370    -0.9430 hc         1 2IE       0.054700
     59 H16        -10.5270    12.8870    -0.8840 hc         1 2IE       0.041700
     60 H5         -21.1170     5.3470     8.9460 ha         1 2IE       0.127500
@<TRIPOS>BOND
     1     1     2 ar  
     2     1    21 ar  
     3     1    25 1   
     4     2     3 1   
     5     2    22 ar  
     6     3    26 2   
     7     3    27 1   
     8     4     5 ar  
     9     4     9 ar  
    10     4    25 1   
    11     5     6 ar  
    12     5    34 1   
    13     6     7 ar  
    14     6    35 1   
    15     7     8 ar  
    16     7    10 1   
    17     8     9 ar  
    18     8    36 1   
    19     9    37 1   
    20    10    28 1   
    21    11    12 ar  
    22    11    28 ar  
    23    11    60 1   
    24    12    13 ar  
    25    12    38 1   
    26    13    14 ar  
    27    13    39 1   
    28    14    29 ar  
    29    14    40 1   
    30    15    23 1   
    31    15    30 1   
    32    15    32 1   
    33    15    41 1   
    34    16    17 1   
    35    16    18 1   
    36    16    30 1   
    37    17    31 1   
    38    17    42 1   
    39    17    43 1   
    40    18    19 1   
    41    18    33 2   
    42    19    20 1   
    43    19    44 1   
    44    19    58 1   
    45    20    45 1   
    46    20    46 1   
    47    20    59 1   
    48    21    24 ar  
    49    22    23 ar  
    50    22    47 1   
    51    23    24 ar  
    52    24    48 1   
    53    27    49 1   
    54    27    50 1   
    55    28    29 ar  
    56    29    51 1   
    57    30    52 1   
    58    30    53 1   
    59    31    32 1   
    60    31    54 1   
    61    31    55 1   
    62    32    56 1   
    63    32    57 1   
@<TRIPOS>SUBSTRUCTURE
     1 2IE         1 TEMP              0 ****  ****    0 ROOT
