@<TRIPOS>MOLECULE
2IE
   60    63     1     0     0
SMALL
abcg2


@<TRIPOS>ATOM
      1 C2         -17.4780     6.6920     3.4440 ca         1 2IE       0.607300
      2 C3         -17.4090     6.4040     2.0700 ca         1 2IE      -0.220600
      3 C8         -18.4050     5.6430     1.2410 c          1 2IE       0.630700
      4 C11        -18.5840     6.4320     5.5100 ca         1 2IE       0.094100
      5 C12        -18.0010     5.4760     6.3230 ca         1 2IE      -0.085000
      6 C13        -18.0960     5.6010     7.7000 ca         1 2IE      -0.129000
      7 C14        -18.7620     6.6860     8.2510 ca         1 2IE       0.122100
      8 C15        -19.3420     7.6460     7.4310 ca         1 2IE      -0.129000
      9 C16        -19.2540     7.5140     6.0530 ca         1 2IE      -0.085000
     10 O17        -18.7690     6.7990     9.6120 os         1 2IE      -0.254200
     11 C19        -21.1700     6.6510     9.8510 ca         1 2IE      -0.145000
     12 C20        -22.2960     6.9710    10.5980 ca         1 2IE      -0.085500
     13 C21        -22.1900     7.7340    11.7520 ca         1 2IE      -0.130000
     14 C22        -20.9400     8.1800    12.1610 ca         1 2IE      -0.085500
     15 C24        -14.0800     8.1430     1.3770 c6         1 2IE      -0.032400
     16 N26        -13.2880     9.6760    -0.3630 n          1 2IE      -0.405800
     17 C27        -12.4880     8.6470    -1.0060 c6         1 2IE       0.095000
     18 C30        -12.8370    10.9160    -0.0480 c          1 2IE       0.600100
     19 C32        -11.4970    11.3360    -0.6240 c3         1 2IE      -0.153400
     20 C33        -11.1200    12.7650    -0.2730 c3         1 2IE      -0.077100
     21 N1         -16.5560     7.3600     4.0920 nb         1 2IE      -0.740000
     22 C4         -16.2860     6.8850     1.4090 ca         1 2IE      -0.001000
     23 C5         -15.2950     7.6010     2.0730 ca         1 2IE      -0.169300
     24 C6         -15.4950     7.8020     3.4290 ca         1 2IE       0.404900
     25 O7         -18.5560     6.2710     4.1390 os         1 2IE      -0.392400
     26 O9         -18.2440     5.5660     0.0300 o          1 2IE      -0.623100
     27 N10        -19.4360     5.0580     1.8610 nt         1 2IE      -0.595000
     28 C18        -19.9260     7.1120    10.2680 ca         1 2IE       0.120100
     29 C23        -19.8060     7.8770    11.4210 ca         1 2IE      -0.145000
     30 C25        -14.4730     9.1460     0.2830 c6         1 2IE       0.092000
     31 C28        -12.0160     7.6270     0.0220 c6         1 2IE      -0.103400
     32 C29        -13.2010     7.0390     0.7810 c6         1 2IE      -0.071400
     33 O31        -13.4850    11.6780     0.6580 o          1 2IE      -0.599100
     34 H1         -17.4840     4.6300     5.8890 ha         1 2IE       0.130000
     35 H2         -17.6480     4.8560     8.3460 ha         1 2IE       0.133500
     36 H3         -19.8570     8.4990     7.8540 ha         1 2IE       0.133500
     37 H4         -19.7030     8.2590     5.4090 ha         1 2IE       0.130000
     38 H6         -23.2640     6.6120    10.2720 ha         1 2IE       0.115500
     39 H7         -23.0720     7.9780    12.3290 ha         1 2IE       0.117000
     40 H8         -20.8420     8.7770    13.0590 ha         1 2IE       0.115500
     41 H9         -13.4860     8.6890     2.1190 hc         1 2IE       0.062700
     42 H10        -11.6470     9.0850    -1.5370 h1         1 2IE       0.053200
     43 H11        -13.1110     8.1550    -1.7590 h1         1 2IE       0.053200
     44 H12        -11.5130    11.2130    -1.7100 hc         1 2IE       0.054700
     45 H14        -10.1520    13.0070    -0.7090 hc         1 2IE       0.041700
     46 H15        -11.8450    13.4810    -0.6580 hc         1 2IE       0.041700
     47 H17        -16.1940     6.6850     0.3490 ha         1 2IE       0.148000
     48 H18        -14.7630     8.3500     4.0130 h4         1 2IE       0.027100
     49 H19        -20.1040     4.5430     1.3100 hn         1 2IE       0.325000
     50 H20        -19.5810     5.1100     2.8530 hn         1 2IE       0.325000
     51 H21        -18.8310     8.2280    11.7340 ha         1 2IE       0.127500
     52 H22        -15.0620     9.9590     0.6980 h1         1 2IE       0.068700
     53 H23        -15.0860     8.6490    -0.4760 h1         1 2IE       0.068700
     54 H24        -11.4580     6.8340    -0.4800 hc         1 2IE       0.049700
     55 H25        -11.3260     8.1120     0.7190 hc         1 2IE       0.049700
     56 H26        -13.7980     6.4300     0.0940 hc         1 2IE       0.047700
     57 H27        -12.8550     6.3720     1.5730 hc         1 2IE       0.047700
     58 H13        -10.7240    10.6520    -0.2620 hc         1 2IE       0.054700
     59 H16        -11.0440    12.9100     0.8030 hc         1 2IE       0.041700
     60 H5         -21.2690     6.0460     8.9580 ha         1 2IE       0.127500
@<TRIPOS>BOND
     1     1     2 ar  
     2     1    21 ar  
     3     1    25 1   
     4     2     3 1   
     5     2    22 ar  
     6     3    26 2   
     7     3    27 1   
     8     4     5 ar  
     9     4     9 ar  
    10     4    25 1   
    11     5     6 ar  
    12     5    34 1   
    13     6     7 ar  
    14     6    35 1   
    15     7     8 ar  
    16     7    10 1   
    17     8     9 ar  
    18     8    36 1   
    19     9    37 1   
    20    10    28 1   
    21    11    12 ar  
    22    11    28 ar  
    23    11    60 1   
    24    12    13 ar  
    25    12    38 1   
    26    13    14 ar  
    27    13    39 1   
    28    14    29 ar  
    29    14    40 1   
    30    15    23 1   
    31    15    30 1   
    32    15    32 1   
    33    15    41 1   
    34    16    17 1   
    35    16    18 1   
    36    16    30 1   
    37    17    31 1   
    38    17    42 1   
    39    17    43 1   
    40    18    19 1   
    41    18    33 2   
    42    19    20 1   
    43    19    44 1   
    44    19    58 1   
    45    20    45 1   
    46    20    46 1   
    47    20    59 1   
    48    21    24 ar  
    49    22    23 ar  
    50    22    47 1   
    51    23    24 ar  
    52    24    48 1   
    53    27    49 1   
    54    27    50 1   
    55    28    29 ar  
    56    29    51 1   
    57    30    52 1   
    58    30    53 1   
    59    31    32 1   
    60    31    54 1   
    61    31    55 1   
    62    32    56 1   
    63    32    57 1   
@<TRIPOS>SUBSTRUCTURE
     1 2IE         1 TEMP              0 ****  ****    0 ROOT
