@<TRIPOS>MOLECULE
2IF
  138   142     1     0     0
SMALL
No Charge or Current Charge


@<TRIPOS>ATOM
      1 C1          13.7800     3.6810    24.8740 ca         1 2IF      -0.072000
      2 C3          15.5290     5.1750    24.0930 ca         1 2IF      -0.040500
      3 C4          14.5680     5.9170    23.3870 ca         1 2IF      -0.128000
      4 C5          13.2170     5.5340    23.4090 ca         1 2IF      -0.040500
      5 C6          12.8040     4.4090    24.1540 ca         1 2IF      -0.160100
      6 C7          11.3410     4.0090    24.1620 c          1 2IF       0.610200
      7 C10          9.6410     0.8590    24.2330 c3         1 2IF      -0.090400
      8 C11         10.4320    -0.2790    24.9430 c3         1 2IF      -0.155900
      9 C12         11.9600    -0.1540    24.7880 c          1 2IF       0.607600
     10 C14         11.0100    -4.1540    22.4270 c3         1 2IF      -0.074400
     11 C15         11.7310    -4.7350    21.1800 c3         1 2IF       0.142500
     12 C30          3.6550    -4.5960    12.9640 ca         1 2IF      -0.021400
     13 C29          3.8460    -5.1710    11.6960 ca         1 2IF      -0.053000
     14 C28          4.7550    -6.2310    11.5420 ca         1 2IF      -0.021400
     15 Br2          5.0220    -7.0160     9.8180 br         1 2IF      -0.080600
     16 C27          5.4700    -6.7180    12.6510 ca         1 2IF      -0.059750
     17 C31          4.3680    -5.0790    14.0750 ca         1 2IF      -0.059750
     18 C26          5.2780    -6.1450    13.9250 ca         1 2IF      -0.090300
     19 C25          6.0540    -6.6680    15.1250 c3         1 2IF       0.207900
     20 C21          8.2130    -6.1800    16.2130 ca         1 2IF       0.203600
     21 C20          8.0240    -7.1640    17.2060 ca         1 2IF      -0.198750
     22 C19          9.0040    -7.3680    18.1920 ca         1 2IF       0.035000
     23 C22          9.3830    -5.4070    16.2180 ca         1 2IF      -0.198750
     24 C23         10.3660    -5.6040    17.2000 ca         1 2IF       0.035000
     25 C18         10.1770    -6.5880    18.1900 ca         1 2IF      -0.340500
     26 O65         12.6960    -6.3000    18.9820 o          1 2IF      -0.537750
     27 O66         11.2890    -8.1770    20.0380 o          1 2IF      -0.537750
     28 N16         10.8300    -5.7750    20.5940 n7         1 2IF      -0.875300
     29 C75         12.1350    -3.6200    20.1500 c          1 2IF       0.570100
     30 O78         11.3000    -2.9820    19.5190 o          1 2IF      -0.556100
     31 N76         13.5040    -3.4200    19.9770 ns         1 2IF      -0.381900
     32 O77         14.0020    -2.2610    19.2650 oh         1 2IF      -0.419100
     33 C131        11.8500    -3.2160    23.3350 c3         1 2IF      -0.107400
     34 C132        12.0120    -1.7670    22.8180 c3         1 2IF       0.094000
     35 N13         12.6130    -0.8940    23.8300 ns         1 2IF      -0.504400
     36 O70         12.6200     0.5580    25.5270 o          1 2IF      -0.652100
     37 C9           9.6970     2.2410    24.9220 c3         1 2IF       0.105000
     38 N8          11.0250     2.8490    24.8390 ns         1 2IF      -0.506900
     39 O68         10.4830     4.6750    23.5990 o          1 2IF      -0.598600
     40 C2          15.1460     4.0370    24.8340 ca         1 2IF      -0.160100
     41 C34         16.1920     3.2320    25.5720 c          1 2IF       0.610200
     42 O67         17.3080     3.6740    25.8080 o          1 2IF      -0.598600
     43 N35         15.8130     1.9680    25.9800 ns         1 2IF      -0.506900
     44 C36         16.6350     1.0660    26.7900 c3         1 2IF       0.105000
     45 C37         16.3470     1.2290    28.2980 c3         1 2IF      -0.090400
     46 C38         14.9220     0.7880    28.7300 c3         1 2IF      -0.155900
     47 C39         14.7080    -0.7160    28.5400 c          1 2IF       0.607600
     48 O69         15.2490    -1.5510    29.2520 o          1 2IF      -0.652100
     49 N40         13.8570    -1.0750    27.5230 ns         1 2IF      -0.504400
     50 C41         13.5780    -2.4570    27.1390 c3         1 2IF       0.094000
     51 C42         14.6870    -3.0320    26.2270 c3         1 2IF      -0.107400
     52 C43         14.9020    -4.5550    26.4000 c3         1 2IF      -0.074400
     53 C44         15.6040    -4.9460    27.7310 c3         1 2IF       0.142500
     54 C71         17.0960    -4.4360    27.7260 c          1 2IF       0.570100
     55 O74         17.9910    -5.0010    27.1020 o          1 2IF      -0.556100
     56 N72         17.3460    -3.3020    28.4970 ns         1 2IF      -0.381900
     57 O73         18.6000    -2.5890    28.3840 oh         1 2IF      -0.419100
     58 N45         15.4570    -6.4270    27.9130 n7         1 2IF      -0.875300
     59 S46         15.5150    -7.1000    29.4420 sy         1 2IF       1.160600
     60 O63         16.1270    -8.4180    29.2620 o          1 2IF      -0.537750
     61 O64         14.1660    -6.9210    29.9780 o          1 2IF      -0.537750
     62 C47         16.6590    -6.0310    30.3190 ca         1 2IF      -0.340500
     63 C52         18.0450    -6.2680    30.2320 ca         1 2IF       0.035000
     64 C51         18.9440    -5.4380    30.9230 ca         1 2IF      -0.198750
     65 C48         16.1750    -4.9730    31.1140 ca         1 2IF       0.035000
     66 C49         17.0800    -4.1460    31.7990 ca         1 2IF      -0.198750
     67 C50         18.4620    -4.3710    31.7080 ca         1 2IF       0.203600
     68 O53         19.2970    -3.5170    32.3980 os         1 2IF      -0.339600
     69 C54         20.7250    -3.6800    32.4040 c3         1 2IF       0.207900
     70 C55         21.3260    -2.5780    33.2650 ca         1 2IF      -0.090300
     71 C56         21.4430    -2.7510    34.6590 ca         1 2IF      -0.059750
     72 C57         21.9940    -1.7310    35.4540 ca         1 2IF      -0.021400
     73 Br3         22.1470    -1.9750    37.3450 br         1 2IF      -0.080600
     74 C60         21.7630    -1.3730    32.6770 ca         1 2IF      -0.059750
     75 C59         22.3140    -0.3560    33.4770 ca         1 2IF      -0.021400
     76 Br4         22.9040     1.2740    32.6700 br         1 2IF      -0.080600
     77 C58         22.4310    -0.5330    34.8660 ca         1 2IF      -0.053000
     78 H1          13.4770     2.8490    25.4950 ha         1 2IF       0.118000
     79 H2          16.5730     5.4800    24.0530 ha         1 2IF       0.137500
     80 H3          14.8740     6.7890    22.8130 ha         1 2IF       0.125000
     81 H4          12.4920     6.1190    22.8470 ha         1 2IF       0.137500
     82 H5           8.5860     0.5580    24.1870 hc         1 2IF       0.065700
     83 H6           9.9760     0.9530    23.1920 hc         1 2IF       0.065700
     84 H7          10.1860    -0.2550    26.0110 hc         1 2IF       0.066700
     85 H8          10.0760    -1.2220    24.5190 hc         1 2IF       0.066700
     86 H9          10.0930    -3.6370    22.1190 hc         1 2IF       0.063950
     87 H10         10.6860    -5.0000    23.0460 hc         1 2IF       0.063950
     88 H11         12.6570    -5.2110    21.5330 h1         1 2IF       0.077700
     89 H13          6.1740    -7.5370    12.5210 ha         1 2IF       0.139250
     90 H14          4.2150    -4.6250    15.0520 ha         1 2IF       0.139250
     91 H15          6.2490    -7.7410    14.9960 h1         1 2IF       0.054200
     92 H16          5.4530    -6.5360    16.0350 h1         1 2IF       0.054200
     93 H17          7.1290    -7.7780    17.2300 ha         1 2IF       0.130000
     94 H18          8.8440    -8.1300    18.9550 ha         1 2IF       0.136250
     95 H19          9.5280    -4.6480    15.4540 ha         1 2IF       0.130000
     96 H20         11.2670    -4.9900    17.1860 ha         1 2IF       0.136250
     97 H21         10.0820    -5.3210    20.0690 hn         1 2IF       0.495000
     98 H22         14.1690    -3.8960    20.5860 hn         1 2IF       0.355000
     99 H23         14.6190    -2.6440    18.5980 ho         1 2IF       0.448000
    100 H24         12.8400    -3.6580    23.5040 hc         1 2IF       0.050450
    101 H25         11.3630    -3.1810    24.3180 hc         1 2IF       0.050450
    102 H26         12.6650    -1.7530    21.9380 h1         1 2IF       0.060200
    103 H27         11.0400    -1.3610    22.5090 h1         1 2IF       0.060200
    104 H28         13.6170    -0.7620    23.8050 hn         1 2IF       0.326000
    105 H29          8.9570     2.9030    24.4520 h1         1 2IF       0.056700
    106 H30          9.4220     2.1380    25.9800 h1         1 2IF       0.056700
    107 H31         11.7990     2.3300    25.2430 hn         1 2IF       0.319500
    108 H32         14.8850     1.6620    25.7110 hn         1 2IF       0.319500
    109 H33         16.4390     0.0310    26.4790 h1         1 2IF       0.056700
    110 H34         17.6960     1.2710    26.5980 h1         1 2IF       0.056700
    111 H35         16.5020     2.2780    28.5790 hc         1 2IF       0.065700
    112 H36         17.0870     0.6460    28.8610 hc         1 2IF       0.065700
    113 H37         14.1780     1.3530    28.1560 hc         1 2IF       0.066700
    114 H38         14.8060     1.0150    29.7960 hc         1 2IF       0.066700
    115 H39         13.4460    -0.3250    26.9700 hn         1 2IF       0.326000
    116 H40         13.4800    -3.0540    28.0550 h1         1 2IF       0.060200
    117 H41         12.6120    -2.5000    26.6180 h1         1 2IF       0.060200
    118 H42         15.6340    -2.5110    26.4090 hc         1 2IF       0.050450
    119 H43         14.4260    -2.8170    25.1850 hc         1 2IF       0.050450
    120 H44         13.9250    -5.0520    26.3290 hc         1 2IF       0.063950
    121 H45         15.5010    -4.9300    25.5600 hc         1 2IF       0.063950
    122 H46         15.0860    -4.4250    28.5470 h1         1 2IF       0.077700
    123 H47         16.5580    -2.7640    28.8740 hn         1 2IF       0.355000
    124 H48         18.8820    -2.4760    29.3210 ho         1 2IF       0.448000
    125 H49         14.5110    -6.7070    27.6620 hn         1 2IF       0.495000
    126 H50         18.4300    -7.0850    29.6230 ha         1 2IF       0.136250
    127 H51         20.0070    -5.6390    30.8310 ha         1 2IF       0.130000
    128 H52         15.1060    -4.7820    31.2010 ha         1 2IF       0.136250
    129 H53         16.7090    -3.3250    32.4050 ha         1 2IF       0.130000
    130 H54         21.1280    -3.6110    31.3850 h1         1 2IF       0.054200
    131 H55         21.0020    -4.6590    32.8160 h1         1 2IF       0.054200
    132 H56         21.1030    -3.6740    35.1250 ha         1 2IF       0.139250
    133 H57         21.6740    -1.2250    31.6030 ha         1 2IF       0.139250
    134 H58         22.8570     0.2560    35.4820 ha         1 2IF       0.148000
    135 S17         11.4200    -6.8410    19.4520 sy         1 2IF       1.160600
    136 O24          7.2870    -5.9350    15.2210 os         1 2IF      -0.339600
    137 H12          3.2940    -4.7960    10.8370 ha         1 2IF       0.148000
    138 Br1          2.4220    -3.1500    13.1780 br         1 2IF      -0.080600
@<TRIPOS>BOND
     1     1     5 ar  
     2     1    40 ar  
     3     1    78 1   
     4     2     3 ar  
     5     2    40 ar  
     6     2    79 1   
     7     3     4 ar  
     8     3    80 1   
     9     4     5 ar  
    10     4    81 1   
    11     5     6 1   
    12     6    38 1   
    13     6    39 2   
    14     7     8 1   
    15     7    37 1   
    16     7    82 1   
    17     7    83 1   
    18     8     9 1   
    19     8    84 1   
    20     8    85 1   
    21     9    35 1   
    22     9    36 2   
    23    10    11 1   
    24    10    33 1   
    25    10    86 1   
    26    10    87 1   
    27    11    28 1   
    28    11    29 1   
    29    11    88 1   
    30    12    13 ar  
    31    12    17 ar  
    32    12   138 1   
    33    13    14 ar  
    34    13   137 1   
    35    14    15 1   
    36    14    16 ar  
    37    16    18 ar  
    38    16    89 1   
    39    17    18 ar  
    40    17    90 1   
    41    18    19 1   
    42    19    91 1   
    43    19    92 1   
    44    19   136 1   
    45    20    21 ar  
    46    20    23 ar  
    47    20   136 1   
    48    21    22 ar  
    49    21    93 1   
    50    22    25 ar  
    51    22    94 1   
    52    23    24 ar  
    53    23    95 1   
    54    24    25 ar  
    55    24    96 1   
    56    25   135 1   
    57    26   135 2   
    58    27   135 2   
    59    28    97 1   
    60    28   135 1   
    61    29    30 2   
    62    29    31 1   
    63    31    32 1   
    64    31    98 1   
    65    32    99 1   
    66    33    34 1   
    67    33   100 1   
    68    33   101 1   
    69    34    35 1   
    70    34   102 1   
    71    34   103 1   
    72    35   104 1   
    73    37    38 1   
    74    37   105 1   
    75    37   106 1   
    76    38   107 1   
    77    40    41 1   
    78    41    42 2   
    79    41    43 1   
    80    43    44 1   
    81    43   108 1   
    82    44    45 1   
    83    44   109 1   
    84    44   110 1   
    85    45    46 1   
    86    45   111 1   
    87    45   112 1   
    88    46    47 1   
    89    46   113 1   
    90    46   114 1   
    91    47    48 2   
    92    47    49 1   
    93    49    50 1   
    94    49   115 1   
    95    50    51 1   
    96    50   116 1   
    97    50   117 1   
    98    51    52 1   
    99    51   118 1   
   100    51   119 1   
   101    52    53 1   
   102    52   120 1   
   103    52   121 1   
   104    53    54 1   
   105    53    58 1   
   106    53   122 1   
   107    54    55 2   
   108    54    56 1   
   109    56    57 1   
   110    56   123 1   
   111    57   124 1   
   112    58    59 1   
   113    58   125 1   
   114    59    60 2   
   115    59    61 2   
   116    59    62 1   
   117    62    63 ar  
   118    62    65 ar  
   119    63    64 ar  
   120    63   126 1   
   121    64    67 ar  
   122    64   127 1   
   123    65    66 ar  
   124    65   128 1   
   125    66    67 ar  
   126    66   129 1   
   127    67    68 1   
   128    68    69 1   
   129    69    70 1   
   130    69   130 1   
   131    69   131 1   
   132    70    71 ar  
   133    70    74 ar  
   134    71    72 ar  
   135    71   132 1   
   136    72    73 1   
   137    72    77 ar  
   138    74    75 ar  
   139    74   133 1   
   140    75    76 1   
   141    75    77 ar  
   142    77   134 1   
@<TRIPOS>SUBSTRUCTURE
     1 2IF         1 TEMP              0 ****  ****    0 ROOT
