@<TRIPOS>MOLECULE
2IF
  138   142     1     0     0
SMALL
bcc


@<TRIPOS>ATOM
      1 C1          12.0140     3.0010    23.3610 ca         1 2IF      -0.090000
      2 C3          13.2690     4.1480    21.6600 ca         1 2IF      -0.058500
      3 C4          12.1180     4.2800    20.9000 ca         1 2IF      -0.146000
      4 C5          10.9150     3.7720    21.3650 ca         1 2IF      -0.058500
      5 C6          10.8510     3.1500    22.6090 ca         1 2IF      -0.160100
      6 C7           9.5230     2.6280    23.0620 c          1 2IF       0.677200
      7 C10          7.9950     0.6290    25.0500 c3         1 2IF      -0.090400
      8 C11          8.9730    -0.0120    26.0390 c3         1 2IF      -0.155900
      9 C12         10.4300     0.2590    25.7350 c          1 2IF       0.674600
     10 C14         10.1940    -4.1630    24.2730 c3         1 2IF      -0.074400
     11 C15         10.7140    -4.7080    22.9420 c3         1 2IF       0.142500
     12 C30          7.6080    -4.0900    12.2280 ca         1 2IF      -0.021400
     13 C29          8.8130    -3.8740    11.5740 ca         1 2IF      -0.071000
     14 C28          9.9790    -4.1160    12.2830 ca         1 2IF      -0.021400
     15 BR2         11.6340    -3.8360    11.4250 br         1 2IF      -0.080600
     16 C27          9.9660    -4.5600    13.5980 ca         1 2IF      -0.077750
     17 C31          7.5600    -4.5220    13.5410 ca         1 2IF      -0.077750
     18 C26          8.7460    -4.7610    14.2300 ca         1 2IF      -0.090300
     19 C25          8.6420    -5.2800    15.6360 c3         1 2IF       0.184700
     20 C21         10.0360    -5.5980    17.5280 ca         1 2IF       0.203600
     21 C20          9.0140    -6.1890    18.2710 ca         1 2IF      -0.216750
     22 C19          9.2770    -6.6630    19.5440 ca         1 2IF       0.017000
     23 C22         11.3180    -5.4860    18.0770 ca         1 2IF      -0.216750
     24 C23         11.5750    -5.9610    19.3480 ca         1 2IF       0.017000
     25 C18         10.5510    -6.5500    20.0830 ca         1 2IF      -0.340500
     26 O65         12.2820    -7.1050    21.9560 o          1 2IF      -0.608550
     27 O66         10.0910    -8.3560    21.9100 o          1 2IF      -0.608550
     28 N16         10.1760    -6.0540    22.7810 n7         1 2IF      -0.820100
     29 C75         10.2870    -3.8410    21.7570 c          1 2IF       0.637100
     30 O78          9.1130    -3.6750    21.4800 o          1 2IF      -0.556100
     31 N76         11.3100    -3.3370    21.0550 ns         1 2IF      -0.448900
     32 O77         11.0900    -2.5450    19.9740 oh         1 2IF      -0.380100
     33 C131        10.8740    -2.8970    24.7820 c3         1 2IF      -0.107400
     34 C132        10.4930    -1.6040    24.0640 c3         1 2IF       0.094000
     35 N13         11.0140    -0.4360    24.7460 ns         1 2IF      -0.571400
     36 O70         11.0510     1.1180    26.3660 o          1 2IF      -0.652100
     37 C9           8.0710     2.1510    24.9760 c3         1 2IF       0.105000
     38 N8           9.2920     2.6570    24.3830 ns         1 2IF      -0.573900
     39 O68          8.7030     2.2200    22.2500 o          1 2IF      -0.598600
     40 C2          13.2290     3.4870    22.8840 ca         1 2IF      -0.160100
     41 C34         14.5100     3.3550    23.6490 c          1 2IF       0.677200
     42 O67         15.3800     4.2110    23.5620 o          1 2IF      -0.598600
     43 N35         14.6510     2.2460    24.3930 ns         1 2IF      -0.573900
     44 C36         15.8470     1.9710    25.1620 c3         1 2IF       0.105000
     45 C37         15.8990     2.6930    26.5050 c3         1 2IF      -0.090400
     46 C38         14.7270     2.3660    27.4270 c3         1 2IF      -0.155900
     47 C39         14.7000     0.8990    27.7930 c          1 2IF       0.674600
     48 O69         15.6270     0.3800    28.4140 o          1 2IF      -0.652100
     49 N40         13.6270     0.2170    27.3810 ns         1 2IF      -0.571400
     50 C41         13.4580    -1.1910    27.6480 c3         1 2IF       0.094000
     51 C42         14.2260    -2.0830    26.6730 c3         1 2IF      -0.107400
     52 C43         14.2040    -3.5520    27.0810 c3         1 2IF      -0.074400
     53 C44         14.9810    -3.8630    28.3690 c3         1 2IF       0.142500
     54 C71         16.4740    -3.5900    28.1560 c          1 2IF       0.637100
     55 O74         17.2130    -4.3890    27.6200 o          1 2IF      -0.556100
     56 N72         16.8680    -2.3890    28.6290 ns         1 2IF      -0.448900
     57 O73         18.1160    -1.9410    28.2980 oh         1 2IF      -0.380100
     58 N45         14.7900    -5.2670    28.6990 n7         1 2IF      -0.820100
     59 S46         14.8300    -5.7440    30.2820 sy         1 2IF       1.302200
     60 O63         14.4870    -7.1570    30.2640 o          1 2IF      -0.608550
     61 O64         14.0600    -4.8520    31.1390 o          1 2IF      -0.608550
     62 C47         16.5320    -5.5420    30.6850 ca         1 2IF      -0.340500
     63 C52         17.4500    -6.4670    30.2120 ca         1 2IF       0.017000
     64 C51         18.7940    -6.3220    30.5030 ca         1 2IF      -0.216750
     65 C48         16.9500    -4.4610    31.4530 ca         1 2IF       0.017000
     66 C49         18.2920    -4.3080    31.7410 ca         1 2IF      -0.216750
     67 C50         19.2220    -5.2380    31.2710 ca         1 2IF       0.203600
     68 O53         20.5000    -5.0140    31.6100 os         1 2IF      -0.316400
     69 C54         21.4990    -5.8940    31.1420 c3         1 2IF       0.184700
     70 C55         22.8440    -5.4040    31.6020 ca         1 2IF      -0.090300
     71 C56         23.8980    -6.3120    31.6170 ca         1 2IF      -0.077750
     72 C57         25.1620    -5.8850    31.9840 ca         1 2IF      -0.021400
     73 BR3         26.5870    -7.1190    31.9950 br         1 2IF      -0.080600
     74 C60         23.0650    -4.0800    31.9610 ca         1 2IF      -0.077750
     75 C59         24.3430    -3.6870    32.3340 ca         1 2IF      -0.021400
     76 BR4         24.6450    -1.8920    32.8300 br         1 2IF      -0.080600
     77 C58         25.4100    -4.5710    32.3520 ca         1 2IF      -0.071000
     78 H1          11.9750     2.5090    24.3260 ha         1 2IF       0.136000
     79 H2          14.2060     4.5460    21.2940 ha         1 2IF       0.155500
     80 H3          12.1580     4.7790    19.9410 ha         1 2IF       0.143000
     81 H4          10.0200     3.8710    20.7670 ha         1 2IF       0.155500
     82 H5           6.9850     0.3650    25.3710 hc         1 2IF       0.065700
     83 H6           8.1130     0.2110    24.0500 hc         1 2IF       0.065700
     84 H7           8.7800     0.3790    27.0390 hc         1 2IF       0.066700
     85 H8           8.7840    -1.0870    26.0810 hc         1 2IF       0.066700
     86 H9           9.1120    -4.0110    24.2090 hc         1 2IF       0.063950
     87 H10         10.3550    -4.9500    25.0110 hc         1 2IF       0.063950
     88 H11         11.8010    -4.7890    23.0060 h1         1 2IF       0.077700
     89 H13         10.8940    -4.7440    14.1200 ha         1 2IF       0.157250
     90 H14          6.6100    -4.6760    14.0380 ha         1 2IF       0.157250
     91 H15          8.3610    -6.3400    15.6060 h1         1 2IF       0.054200
     92 H16          7.8480    -4.7450    16.1670 h1         1 2IF       0.054200
     93 H17          8.0110    -6.2900    17.8800 ha         1 2IF       0.148000
     94 H18          8.4730    -7.1220    20.1050 ha         1 2IF       0.154250
     95 H19         12.1140    -5.0420    17.4910 ha         1 2IF       0.148000
     96 H20         12.5740    -5.8770    19.7530 ha         1 2IF       0.154250
     97 H21          9.1600    -6.0940    22.7730 hn         1 2IF       0.439800
     98 H22         12.2800    -3.4760    21.3050 hn         1 2IF       0.355000
     99 H23         11.0140    -3.1410    19.2130 ho         1 2IF       0.409000
    100 H24         11.9600    -3.0240    24.7490 hc         1 2IF       0.050450
    101 H25         10.6120    -2.7850    25.8370 hc         1 2IF       0.050450
    102 H26         10.8930    -1.5800    23.0520 h1         1 2IF       0.060200
    103 H27          9.4100    -1.5280    23.9700 h1         1 2IF       0.060200
    104 H28         11.9900    -0.2290    24.5860 hn         1 2IF       0.326000
    105 H29          7.2140     2.5240    24.4130 h1         1 2IF       0.056700
    106 H30          8.0000     2.5770    25.9770 h1         1 2IF       0.056700
    107 H31          9.9700     3.0760    24.9950 hn         1 2IF       0.319500
    108 H32         13.9380     1.5360    24.3660 hn         1 2IF       0.319500
    109 H33         15.8920     0.8910    25.3070 h1         1 2IF       0.056700
    110 H34         16.7250     2.2410    24.5730 h1         1 2IF       0.056700
    111 H35         15.9260     3.7710    26.3370 hc         1 2IF       0.065700
    112 H36         16.8390     2.4320    26.9950 hc         1 2IF       0.065700
    113 H37         13.7870     2.6770    26.9660 hc         1 2IF       0.066700
    114 H38         14.8280     2.9400    28.3510 hc         1 2IF       0.066700
    115 H39         12.8710     0.6990    26.9040 hn         1 2IF       0.326000
    116 H40         13.7480    -1.3860    28.6820 h1         1 2IF       0.060200
    117 H41         12.3930    -1.4190    27.5830 h1         1 2IF       0.060200
    118 H42         15.2500    -1.7250    26.5570 hc         1 2IF       0.050450
    119 H43         13.7690    -1.9910    25.6860 hc         1 2IF       0.050450
    120 H44         13.1670    -3.8690    27.2300 hc         1 2IF       0.063950
    121 H45         14.6070    -4.1670    26.2720 hc         1 2IF       0.063950
    122 H46         14.5970    -3.2300    29.1750 h1         1 2IF       0.077700
    123 H47         16.2120    -1.6310    28.8000 hn         1 2IF       0.355000
    124 H48         18.6620    -2.0940    29.0800 ho         1 2IF       0.409000
    125 H49         14.0390    -5.7300    28.1970 hn         1 2IF       0.439800
    126 H50         17.1320    -7.3090    29.6110 ha         1 2IF       0.154250
    127 H51         19.4870    -7.0610    30.1260 ha         1 2IF       0.148000
    128 H52         16.2410    -3.7350    31.8260 ha         1 2IF       0.154250
    129 H53         18.6270    -3.4700    32.3380 ha         1 2IF       0.148000
    130 H54         21.4890    -5.9400    30.0470 h1         1 2IF       0.054200
    131 H55         21.3310    -6.9100    31.5140 h1         1 2IF       0.054200
    132 H56         23.7230    -7.3450    31.3430 ha         1 2IF       0.157250
    133 H57         22.2560    -3.3640    31.9520 ha         1 2IF       0.157250
    134 H58         26.4000    -4.2480    32.6450 ha         1 2IF       0.166000
    135 S17         10.8470    -7.1300    21.7260 sy         1 2IF       1.302200
    136 O24          9.8820    -5.1160    16.2880 os         1 2IF      -0.316400
    137 H12          8.8410    -3.5290    10.5500 ha         1 2IF       0.166000
    138 BR1          5.9960    -3.7800    11.3010 br         1 2IF      -0.080600
@<TRIPOS>BOND
     1     1     5 ar  
     2     1    40 ar  
     3     1    78 1   
     4     2     3 ar  
     5     2    40 ar  
     6     2    79 1   
     7     3     4 ar  
     8     3    80 1   
     9     4     5 ar  
    10     4    81 1   
    11     5     6 1   
    12     6    38 1   
    13     6    39 2   
    14     7     8 1   
    15     7    37 1   
    16     7    82 1   
    17     7    83 1   
    18     8     9 1   
    19     8    84 1   
    20     8    85 1   
    21     9    35 1   
    22     9    36 2   
    23    10    11 1   
    24    10    33 1   
    25    10    86 1   
    26    10    87 1   
    27    11    28 1   
    28    11    29 1   
    29    11    88 1   
    30    12    13 ar  
    31    12    17 ar  
    32    12   138 1   
    33    13    14 ar  
    34    13   137 1   
    35    14    15 1   
    36    14    16 ar  
    37    16    18 ar  
    38    16    89 1   
    39    17    18 ar  
    40    17    90 1   
    41    18    19 1   
    42    19    91 1   
    43    19    92 1   
    44    19   136 1   
    45    20    21 ar  
    46    20    23 ar  
    47    20   136 1   
    48    21    22 ar  
    49    21    93 1   
    50    22    25 ar  
    51    22    94 1   
    52    23    24 ar  
    53    23    95 1   
    54    24    25 ar  
    55    24    96 1   
    56    25   135 1   
    57    26   135 2   
    58    27   135 2   
    59    28    97 1   
    60    28   135 1   
    61    29    30 2   
    62    29    31 1   
    63    31    32 1   
    64    31    98 1   
    65    32    99 1   
    66    33    34 1   
    67    33   100 1   
    68    33   101 1   
    69    34    35 1   
    70    34   102 1   
    71    34   103 1   
    72    35   104 1   
    73    37    38 1   
    74    37   105 1   
    75    37   106 1   
    76    38   107 1   
    77    40    41 1   
    78    41    42 2   
    79    41    43 1   
    80    43    44 1   
    81    43   108 1   
    82    44    45 1   
    83    44   109 1   
    84    44   110 1   
    85    45    46 1   
    86    45   111 1   
    87    45   112 1   
    88    46    47 1   
    89    46   113 1   
    90    46   114 1   
    91    47    48 2   
    92    47    49 1   
    93    49    50 1   
    94    49   115 1   
    95    50    51 1   
    96    50   116 1   
    97    50   117 1   
    98    51    52 1   
    99    51   118 1   
   100    51   119 1   
   101    52    53 1   
   102    52   120 1   
   103    52   121 1   
   104    53    54 1   
   105    53    58 1   
   106    53   122 1   
   107    54    55 2   
   108    54    56 1   
   109    56    57 1   
   110    56   123 1   
   111    57   124 1   
   112    58    59 1   
   113    58   125 1   
   114    59    60 2   
   115    59    61 2   
   116    59    62 1   
   117    62    63 ar  
   118    62    65 ar  
   119    63    64 ar  
   120    63   126 1   
   121    64    67 ar  
   122    64   127 1   
   123    65    66 ar  
   124    65   128 1   
   125    66    67 ar  
   126    66   129 1   
   127    67    68 1   
   128    68    69 1   
   129    69    70 1   
   130    69   130 1   
   131    69   131 1   
   132    70    71 ar  
   133    70    74 ar  
   134    71    72 ar  
   135    71   132 1   
   136    72    73 1   
   137    72    77 ar  
   138    74    75 ar  
   139    74   133 1   
   140    75    76 1   
   141    75    77 ar  
   142    77   134 1   
@<TRIPOS>SUBSTRUCTURE
     1 2IF         1 TEMP              0 ****  ****    0 ROOT
