@<TRIPOS>MOLECULE
2IG
   53    56     1     0     0
SMALL
abcg2


@<TRIPOS>ATOM
      1 C1           2.9990    -0.7460     1.2370 ca         1 2IG       0.422900
      2 N1           4.1970    -1.3210     1.2210 nb         1 2IG      -0.328000
      3 C2           5.0590    -0.8840     0.3060 ca         1 2IG       0.406900
      4 N2           4.8360     0.0660    -0.5980 nb         1 2IG      -0.287000
      5 C3           3.6320     0.6440    -0.5750 ca         1 2IG       0.207300
      6 C4           2.6520     0.2840     0.3340 cp         1 2IG      -0.276000
      7 N3           2.1120    -1.2100     2.1400 nv         1 2IG      -1.066900
      8 N4           6.2980    -1.4340     0.3260 nv         1 2IG      -1.050900
      9 C5           3.3810     1.6690    -1.6420 c3         1 2IG      -0.135700
     10 C6           2.8070     1.0250    -2.9020 c3         1 2IG      -0.082100
     11 C7           1.1190     2.1450     1.0120 ca         1 2IG      -0.142000
     12 C8          -0.1350     2.7220     1.1050 ca         1 2IG      -0.056000
     13 C9          -1.2320     2.0500     0.5750 cp         1 2IG      -0.086000
     14 C10         -1.0410     0.8040    -0.0530 ca         1 2IG      -0.002200
     15 C11          0.2180     0.2230    -0.1510 ca         1 2IG      -0.136000
     16 C12          1.3070     0.9020     0.3840 cp         1 2IG       0.014000
     17 N5          -2.2500     0.3330    -0.5020 na         1 2IG      -0.097600
     18 C13         -2.4500    -0.9420    -1.1400 c3         1 2IG       0.083600
     19 C14         -2.5380    -2.1000    -0.1520 c3         1 2IG      -0.108400
     20 C15         -2.7190    -3.4170    -0.8790 c3         1 2IG       0.162600
     21 O1          -2.7300    -4.4600     0.0570 os         1 2IG      -0.450000
     22 C16         -2.9000    -5.7170    -0.5370 c3         1 2IG       0.146900
     23 C17         -4.6030     1.1750    -0.3790 ca         1 2IG      -0.142000
     24 C18         -3.2320     1.2340    -0.1560 ca         1 2IG       0.003800
     25 C19         -2.6420     2.3270     0.5080 cp         1 2IG      -0.085000
     26 C20         -3.4380     3.3810     0.9470 ca         1 2IG      -0.051000
     27 C21         -4.8010     3.3290     0.7240 ca         1 2IG      -0.146000
     28 C22         -5.3730     2.2350     0.0680 ca         1 2IG      -0.080000
     29 HN31         2.4530    -1.7990     2.8790 hn         1 2IG       0.490000
     30 HN32         1.2770    -0.6870     2.3370 hn         1 2IG       0.490000
     31 HN41         6.8760    -1.3050    -0.4850 hn         1 2IG       0.484000
     32 HN42         6.4140    -2.3080     0.8080 hn         1 2IG       0.484000
     33 H51          4.3260     2.1590    -1.8800 hc         1 2IG       0.060700
     34 H52          2.6970     2.4400    -1.2840 hc         1 2IG       0.060700
     35 H61          3.4640     0.2390    -3.2750 hc         1 2IG       0.036367
     36 H62          1.8280     0.5850    -2.7110 hc         1 2IG       0.036367
     37 H63          2.6900     1.7660    -3.6930 hc         1 2IG       0.036367
     38 H8          -0.2550     3.6800     1.5950 ha         1 2IG       0.117000
     39 H11          0.3670    -0.7380    -0.6280 ha         1 2IG       0.124000
     40 H131        -3.3540    -0.8840    -1.7470 h1         1 2IG       0.055700
     41 H132        -1.6340    -1.1030    -1.8490 h1         1 2IG       0.055700
     42 H141        -1.6260    -2.1390     0.4510 hc         1 2IG       0.066200
     43 H142        -3.3710    -1.9360     0.5360 hc         1 2IG       0.066200
     44 H151        -3.6540    -3.4020    -1.4590 h1         1 2IG       0.018700
     45 H152        -1.9070    -3.5590    -1.6090 h1         1 2IG       0.018700
     46 H161        -2.8870    -6.4680     0.2530 h1         1 2IG       0.029367
     47 H162        -3.8530    -5.7960    -1.0740 h1         1 2IG       0.029367
     48 H163        -2.0970    -5.9500    -1.2480 h1         1 2IG       0.029367
     49 H17         -5.0660     0.3350    -0.8790 ha         1 2IG       0.116000
     50 H20         -2.9970     4.2290     1.4560 ha         1 2IG       0.115000
     51 H21         -5.4340     4.1390     1.0610 ha         1 2IG       0.113000
     52 H22         -6.4420     2.2130    -0.0950 ha         1 2IG       0.111000
     53 H7           1.9760     2.6520     1.4350 ha         1 2IG       0.118000
@<TRIPOS>BOND
     1     1     2 ar  
     2     1     6 ar  
     3     1     7 1   
     4     2     3 ar  
     5     3     4 ar  
     6     3     8 1   
     7     4     5 ar  
     8     5     6 ar  
     9     5     9 1   
    10     6    16 1   
    11     7    29 1   
    12     7    30 1   
    13     8    31 1   
    14     8    32 1   
    15     9    10 1   
    16     9    33 1   
    17     9    34 1   
    18    10    35 1   
    19    10    36 1   
    20    10    37 1   
    21    11    12 ar  
    22    11    16 ar  
    23    11    53 1   
    24    12    13 ar  
    25    12    38 1   
    26    13    14 ar  
    27    13    25 1   
    28    14    15 ar  
    29    14    17 1   
    30    15    16 ar  
    31    15    39 1   
    32    17    18 1   
    33    17    24 1   
    34    18    19 1   
    35    18    40 1   
    36    18    41 1   
    37    19    20 1   
    38    19    42 1   
    39    19    43 1   
    40    20    21 1   
    41    20    44 1   
    42    20    45 1   
    43    21    22 1   
    44    22    46 1   
    45    22    47 1   
    46    22    48 1   
    47    23    24 ar  
    48    23    28 ar  
    49    23    49 1   
    50    24    25 ar  
    51    25    26 ar  
    52    26    27 ar  
    53    26    50 1   
    54    27    28 ar  
    55    27    51 1   
    56    28    52 1   
@<TRIPOS>SUBSTRUCTURE
     1 2IG         1 TEMP              0 ****  ****    0 ROOT
