@<TRIPOS>MOLECULE
2IG
   53    56     1     0     0
SMALL
No Charge or Current Charge


@<TRIPOS>ATOM
      1 C1           3.1640    -0.8400     1.1250 ca         1 2IG       0.422900
      2 N1           4.3890    -1.3690     1.1060 nb         1 2IG      -0.328000
      3 C2           5.2540    -0.7810     0.2770 ca         1 2IG       0.406900
      4 N2           5.0380     0.2630    -0.5300 nb         1 2IG      -0.287000
      5 C3           3.8010     0.7990    -0.5040 ca         1 2IG       0.207300
      6 C4           2.7860     0.2700     0.3390 cp         1 2IG      -0.276000
      7 N3           2.3050    -1.4430     1.9820 nv         1 2IG      -1.066900
      8 N4           6.4970    -1.3120     0.2470 nv         1 2IG      -1.050900
      9 C5           3.5740     1.9680    -1.4590 c3         1 2IG      -0.135700
     10 C6           2.8190     1.5530    -2.7380 c3         1 2IG      -0.082100
     11 C7           1.1700     2.1240     0.9540 ca         1 2IG      -0.142000
     12 C8          -0.1260     2.6830     1.0050 ca         1 2IG      -0.056000
     13 C9          -1.1940     1.9390     0.4720 cp         1 2IG      -0.086000
     14 C10         -0.9590     0.6840    -0.0840 ca         1 2IG      -0.002200
     15 C11          0.3130     0.1040    -0.1420 ca         1 2IG      -0.136000
     16 C12          1.4080     0.8390     0.3820 cp         1 2IG       0.014000
     17 N5          -2.2170     0.2290    -0.5090 na         1 2IG      -0.097600
     18 C13         -2.4320    -1.0740    -1.1630 c3         1 2IG       0.083600
     19 C14         -2.7120    -2.2060    -0.1550 c3         1 2IG      -0.108400
     20 C15         -2.9370    -3.5640    -0.8400 c3         1 2IG       0.162600
     21 O1          -3.1890    -4.5330     0.1890 os         1 2IG      -0.450000
     22 C16         -3.4220    -5.8670    -0.2940 c3         1 2IG       0.146900
     23 C17         -4.6300     1.0870    -0.4670 ca         1 2IG      -0.142000
     24 C18         -3.2500     1.1400    -0.2350 ca         1 2IG       0.003800
     25 C19         -2.6250     2.2240     0.3790 cp         1 2IG      -0.085000
     26 C20         -3.3850     3.3340     0.7930 ca         1 2IG      -0.051000
     27 C21         -4.7800     3.3120     0.5680 ca         1 2IG      -0.146000
     28 C22         -5.3980     2.1980    -0.0550 ca         1 2IG      -0.080000
     29 HN31         2.6890    -2.0630     2.6890 hn         1 2IG       0.490000
     30 HN32         1.4390    -0.9640     2.2080 hn         1 2IG       0.490000
     31 HN41         7.1130    -1.0510    -0.5190 hn         1 2IG       0.484000
     32 HN42         6.6430    -2.2280     0.6630 hn         1 2IG       0.484000
     33 H51          4.5330     2.4150    -1.7500 hc         1 2IG       0.060700
     34 H52          3.0170     2.7680    -0.9590 hc         1 2IG       0.060700
     35 H61          3.3740     0.7780    -3.2800 hc         1 2IG       0.036367
     36 H62          1.8250     1.1610    -2.4960 hc         1 2IG       0.036367
     37 H63          2.6930     2.4150    -3.4050 hc         1 2IG       0.036367
     38 H8          -0.2940     3.6630     1.4460 ha         1 2IG       0.117000
     39 H11          0.4660    -0.8790    -0.5800 ha         1 2IG       0.124000
     40 H131        -3.2760    -0.9860    -1.8580 h1         1 2IG       0.055700
     41 H132        -1.5440    -1.3230    -1.7570 h1         1 2IG       0.055700
     42 H141        -1.8660    -2.2870     0.5390 hc         1 2IG       0.066200
     43 H142        -3.5980    -1.9490     0.4380 hc         1 2IG       0.066200
     44 H151        -3.7920    -3.4940    -1.5250 h1         1 2IG       0.018700
     45 H152        -2.0440    -3.8370    -1.4190 h1         1 2IG       0.018700
     46 H161        -3.6070    -6.5490     0.5450 h1         1 2IG       0.029367
     47 H162        -4.2960    -5.8950    -0.9570 h1         1 2IG       0.029367
     48 H163        -2.5510    -6.2370    -0.8510 h1         1 2IG       0.029367
     49 H17         -5.0960     0.2280    -0.9430 ha         1 2IG       0.116000
     50 H20         -2.9110     4.1860     1.2740 ha         1 2IG       0.115000
     51 H21         -5.3870     4.1590     0.8800 ha         1 2IG       0.113000
     52 H22         -6.4740     2.1990    -0.2170 ha         1 2IG       0.111000
     53 H7           2.0050     2.6860     1.3650 ha         1 2IG       0.118000
@<TRIPOS>BOND
     1     1     2 ar  
     2     1     6 ar  
     3     1     7 1   
     4     2     3 ar  
     5     3     4 ar  
     6     3     8 1   
     7     4     5 ar  
     8     5     6 ar  
     9     5     9 1   
    10     6    16 1   
    11     7    29 1   
    12     7    30 1   
    13     8    31 1   
    14     8    32 1   
    15     9    10 1   
    16     9    33 1   
    17     9    34 1   
    18    10    35 1   
    19    10    36 1   
    20    10    37 1   
    21    11    12 ar  
    22    11    16 ar  
    23    11    53 1   
    24    12    13 ar  
    25    12    38 1   
    26    13    14 ar  
    27    13    25 1   
    28    14    15 ar  
    29    14    17 1   
    30    15    16 ar  
    31    15    39 1   
    32    17    18 1   
    33    17    24 1   
    34    18    19 1   
    35    18    40 1   
    36    18    41 1   
    37    19    20 1   
    38    19    42 1   
    39    19    43 1   
    40    20    21 1   
    41    20    44 1   
    42    20    45 1   
    43    21    22 1   
    44    22    46 1   
    45    22    47 1   
    46    22    48 1   
    47    23    24 ar  
    48    23    28 ar  
    49    23    49 1   
    50    24    25 ar  
    51    25    26 ar  
    52    26    27 ar  
    53    26    50 1   
    54    27    28 ar  
    55    27    51 1   
    56    28    52 1   
@<TRIPOS>SUBSTRUCTURE
     1 2IG         1 TEMP              0 ****  ****    0 ROOT
