@<TRIPOS>MOLECULE
2IH
   34    35     1     0     0
SMALL
No Charge or Current Charge


@<TRIPOS>ATOM
      1 C1          -5.1720    -1.1280     0.0200 cc         1 2IH      -0.235000
      2 C5          -6.3590    -0.6440    -0.4670 cd         1 2IH       0.229900
      3 N4          -6.3910     0.7330    -0.3890 nd         1 2IH      -0.671000
      4 C3          -5.2290     1.0910     0.1420 cc         1 2IH       0.386400
      5 N2          -4.4530    -0.0180     0.4090 na         1 2IH      -0.168500
      6 C6          -3.1050    -0.0130     0.9960 c3         1 2IH       0.072600
      7 C7          -1.9900    -0.0200    -0.0700 c3         1 2IH      -0.098400
      8 C8          -0.5720    -0.0160     0.5410 c3         1 2IH      -0.073400
      9 C9           0.5450    -0.0240    -0.5250 c3         1 2IH      -0.073400
     10 C10          1.9620    -0.0210     0.0870 c3         1 2IH      -0.098400
     11 C11          3.0770    -0.0290    -0.9800 c3         1 2IH       0.072600
     12 N12          4.4250    -0.0270    -0.3930 na         1 2IH      -0.168500
     13 C16          5.2020     1.0850    -0.1410 cc         1 2IH       0.386400
     14 C13          5.1440    -1.1310     0.0110 cc         1 2IH      -0.235000
     15 C14          6.3310    -0.6420     0.4910 cd         1 2IH       0.229900
     16 N15          6.3630     0.7350     0.3940 nd         1 2IH      -0.671000
     17 H1          -4.8050    -2.1420     0.1120 h4         1 2IH       0.154000
     18 H5          -7.1900    -1.2110    -0.8690 h4         1 2IH       0.038100
     19 H3          -4.8970     2.1010     0.3530 h5         1 2IH       0.051100
     20 H6C1        -3.0000    -0.8960     1.6400 h1         1 2IH       0.059700
     21 H6C2        -2.9990     0.8770     1.6300 h1         1 2IH       0.059700
     22 H7C1        -2.1080     0.8570    -0.7190 hc         1 2IH       0.054700
     23 H7C2        -2.1080    -0.9070    -0.7060 hc         1 2IH       0.054700
     24 H8C1        -0.4580    -0.8940     1.1900 hc         1 2IH       0.042700
     25 H8C2        -0.4570     0.8700     1.1780 hc         1 2IH       0.042700
     26 H9C1         0.4290    -0.9110    -1.1610 hc         1 2IH       0.042700
     27 H9C2         0.4300     0.8530    -1.1740 hc         1 2IH       0.042700
     28 H101         2.0810     0.8660     0.7230 hc         1 2IH       0.054700
     29 H102         2.0800    -0.8980     0.7350 hc         1 2IH       0.054700
     30 H111         2.9720    -0.9210    -1.6110 h1         1 2IH       0.059700
     31 H112         2.9720     0.8520    -1.6260 h1         1 2IH       0.059700
     32 H16          4.8700     2.0920    -0.3660 h5         1 2IH       0.051100
     33 H13          4.7760    -2.1470    -0.0660 h4         1 2IH       0.154000
     34 H14          7.1620    -1.2030     0.9010 h4         1 2IH       0.038100
@<TRIPOS>BOND
     1     1     2 2   
     2     1     5 1   
     3     1    17 1   
     4     2     3 1   
     5     2    18 1   
     6     3     4 2   
     7     4     5 1   
     8     4    19 1   
     9     5     6 1   
    10     6     7 1   
    11     6    20 1   
    12     6    21 1   
    13     7     8 1   
    14     7    22 1   
    15     7    23 1   
    16     8     9 1   
    17     8    24 1   
    18     8    25 1   
    19     9    10 1   
    20     9    26 1   
    21     9    27 1   
    22    10    11 1   
    23    10    28 1   
    24    10    29 1   
    25    11    12 1   
    26    11    30 1   
    27    11    31 1   
    28    12    13 1   
    29    12    14 1   
    30    13    16 2   
    31    13    32 1   
    32    14    15 2   
    33    14    33 1   
    34    15    16 1   
    35    15    34 1   
@<TRIPOS>SUBSTRUCTURE
     1 2IH         1 TEMP              0 ****  ****    0 ROOT
