@<TRIPOS>MOLECULE
2IH
   34    35     1     0     0
SMALL
abcg2


@<TRIPOS>ATOM
      1 C1          -5.0740    -1.1170     0.0160 cc         1 2IH      -0.235000
      2 C5          -6.2470    -0.6370    -0.4930 cd         1 2IH       0.229900
      3 N4          -6.2810     0.7260    -0.3940 nd         1 2IH      -0.671000
      4 C3          -5.1440     1.0580     0.1650 cc         1 2IH       0.386400
      5 N2          -4.3800    -0.0190     0.4400 na         1 2IH      -0.168500
      6 C6          -3.0400    -0.0040     0.9930 c3         1 2IH       0.072600
      7 C7          -1.9600    -0.0280    -0.0780 c3         1 2IH      -0.098400
      8 C8          -0.5650    -0.0210     0.5330 c3         1 2IH      -0.073400
      9 C9           0.5370    -0.0220    -0.5180 c3         1 2IH      -0.073400
     10 C10          1.9320    -0.0300     0.0940 c3         1 2IH      -0.098400
     11 C11          3.0130    -0.0170    -0.9780 c3         1 2IH       0.072600
     12 N12          4.3520    -0.0270    -0.4230 na         1 2IH      -0.168500
     13 C16          5.1220     1.0520    -0.1720 cc         1 2IH       0.386400
     14 C13          5.0410    -1.1180     0.0250 cc         1 2IH      -0.235000
     15 C14          6.2170    -0.6330     0.5210 cd         1 2IH       0.229900
     16 N15          6.2580     0.7270     0.3930 nd         1 2IH      -0.671000
     17 H1          -4.6860    -2.1170     0.1180 h4         1 2IH       0.154000
     18 H5          -7.0650    -1.2000    -0.9150 h4         1 2IH       0.038100
     19 H3          -4.8220     2.0610     0.4020 h5         1 2IH       0.051100
     20 H6C1        -2.9380    -0.8620     1.6590 h1         1 2IH       0.059700
     21 H6C2        -2.9450     0.8900     1.6100 h1         1 2IH       0.059700
     22 H7C1        -2.0840     0.8380    -0.7350 hc         1 2IH       0.054700
     23 H7C2        -2.0840    -0.9180    -0.7030 hc         1 2IH       0.054700
     24 H8C1        -0.4480    -0.8920     1.1850 hc         1 2IH       0.042700
     25 H8C2        -0.4520     0.8580     1.1770 hc         1 2IH       0.042700
     26 H9C1         0.4190    -0.8950    -1.1680 hc         1 2IH       0.042700
     27 H9C2         0.4250     0.8560    -1.1630 hc         1 2IH       0.042700
     28 H101         2.0580     0.8410     0.7440 hc         1 2IH       0.054700
     29 H102         2.0540    -0.9150     0.7260 hc         1 2IH       0.054700
     30 H111         2.9110    -0.8820    -1.6340 h1         1 2IH       0.059700
     31 H112         2.9180     0.8710    -1.6030 h1         1 2IH       0.059700
     32 H16          4.8050     2.0520    -0.4300 h5         1 2IH       0.051100
     33 H13          4.6480    -2.1180    -0.0570 h4         1 2IH       0.154000
     34 H14          7.0330    -1.1910     0.9550 h4         1 2IH       0.038100
@<TRIPOS>BOND
     1     1     2 2   
     2     1     5 1   
     3     1    17 1   
     4     2     3 1   
     5     2    18 1   
     6     3     4 2   
     7     4     5 1   
     8     4    19 1   
     9     5     6 1   
    10     6     7 1   
    11     6    20 1   
    12     6    21 1   
    13     7     8 1   
    14     7    22 1   
    15     7    23 1   
    16     8     9 1   
    17     8    24 1   
    18     8    25 1   
    19     9    10 1   
    20     9    26 1   
    21     9    27 1   
    22    10    11 1   
    23    10    28 1   
    24    10    29 1   
    25    11    12 1   
    26    11    30 1   
    27    11    31 1   
    28    12    13 1   
    29    12    14 1   
    30    13    16 2   
    31    13    32 1   
    32    14    15 2   
    33    14    33 1   
    34    15    16 1   
    35    15    34 1   
@<TRIPOS>SUBSTRUCTURE
     1 2IH         1 TEMP              0 ****  ****    0 ROOT
