@<TRIPOS>MOLECULE
2II
   70    75     1     0     0
SMALL
No Charge or Current Charge


@<TRIPOS>ATOM
      1 C1           6.3520    20.3440    -1.1730 c5         1 2II       0.144300
      2 C2           5.2400    19.3020    -1.2050 ca         1 2II      -0.089300
      3 C3           4.4510    18.9190    -2.3000 ca         1 2II      -0.079000
      4 C7           5.0520    18.7090     0.0320 ca         1 2II      -0.150600
      5 C8           6.0090    19.2980     0.9850 c          1 2II       0.581600
      6 C10          2.7080    15.7980    -5.0870 ca         1 2II       0.133100
      7 C11          3.4320    14.7520    -5.6760 ca         1 2II      -0.136000
      8 C12          2.9400    14.1130    -6.8230 ca         1 2II      -0.081000
      9 C13          1.7100    14.5060    -7.3740 ca         1 2II      -0.126000
     10 C14          0.9350    15.5240    -6.7720 ca         1 2II      -0.086500
     11 C15          1.4710    16.1910    -5.6440 ca         1 2II      -0.174000
     12 C16         -0.3340    15.9830    -7.3760 cc         1 2II       0.326500
     13 C19         -2.5680    18.6070    -8.1510 c5         1 2II       0.086300
     14 C20         -2.1380    19.4940    -9.3540 c5         1 2II      -0.112400
     15 C21         -2.8950    18.8500   -10.5440 c5         1 2II       0.098000
     16 C22         -4.0970    18.4820    -8.4180 c5         1 2II       0.088000
     17 C24         -6.5760    17.6760    -9.8610 c3         1 2II      -0.153400
     18 C27         -0.8830    12.8350    -7.6630 ca         1 2II      -0.160000
     19 C30         -1.9070    13.3860    -9.7630 ca         1 2II      -0.160000
     20 O2          -5.2660    18.0460   -11.8620 o          1 2II      -0.590100
     21 C25         -7.8220    17.3640   -10.7210 c3         1 2II      -0.077100
     22 N3          -4.1620    18.4450    -9.9000 n          1 2II      -0.436800
     23 N1          -1.8440    17.3260    -8.0530 na         1 2II       0.135800
     24 C18         -2.1400    16.1170    -8.6850 cd         1 2II      -0.144000
     25 C17         -1.1650    15.2590    -8.2710 cc         1 2II      -0.158000
     26 C26         -1.2980    13.8270    -8.5720 ca         1 2II       0.046000
     27 C29         -2.0410    12.0100   -10.0080 ca         1 2II       0.333400
     28 N4          -1.6230    11.0620    -9.1390 nb         1 2II      -0.666000
     29 C28         -1.0560    11.4790    -7.9850 ca         1 2II       0.333400
     30 N2          -0.7240    17.2400    -7.2420 nd         1 2II      -0.525800
     31 O1           3.2510    16.4070    -3.9740 os         1 2II      -0.343100
     32 C4           3.4630    17.9240    -2.1210 ca         1 2II      -0.072300
     33 C5           3.2850    17.3270    -0.8490 ca         1 2II      -0.095000
     34 C6           4.0830    17.7180     0.2450 ca         1 2II      -0.044000
     35 O            6.1370    19.0220     2.1710 o          1 2II      -0.540000
     36 N            6.7530    20.2430     0.2640 n          1 2II      -0.419800
     37 C            7.8150    21.0350     0.9060 c3         1 2II       0.098300
     38 H1           7.1770    20.0790    -1.8480 h1         1 2II       0.060700
     39 H2           5.9790    21.3450    -1.4260 h1         1 2II       0.060700
     40 H3           4.6020    19.3830    -3.2730 ha         1 2II       0.121000
     41 H4           2.4520    18.3420    -3.9750 h1         1 2II       0.044200
     42 H5           1.6100    17.1790    -2.9260 h1         1 2II       0.044200
     43 H6           4.3860    14.4490    -5.2520 ha         1 2II       0.129000
     44 H7           3.5190    13.3210    -7.2950 ha         1 2II       0.118000
     45 H8           1.3790    14.0300    -8.2930 ha         1 2II       0.125000
     46 H9           0.9040    17.0020    -5.1970 ha         1 2II       0.125000
     47 H10         -2.4070    19.1480    -7.2090 h1         1 2II       0.096700
     48 H11         -1.0530    19.5130    -9.5050 hc         1 2II       0.074700
     49 H12         -2.4620    20.5310    -9.2060 hc         1 2II       0.074700
     50 H13         -2.3630    17.9740   -10.9400 h1         1 2II       0.064700
     51 H14         -3.0510    19.5620   -11.3650 h1         1 2II       0.064700
     52 H15         -4.6370    19.3580    -8.0340 h1         1 2II       0.060700
     53 H16         -4.5190    17.5850    -7.9470 h1         1 2II       0.060700
     54 H17         -6.3250    16.8320    -9.2080 hc         1 2II       0.053700
     55 H18         -6.7830    18.4610    -9.1250 hc         1 2II       0.053700
     56 H19         -0.4540    13.0980    -6.7020 ha         1 2II       0.126500
     57 H20         -2.2580    14.0920   -10.5090 ha         1 2II       0.126500
     58 H21         -8.6720    17.1000   -10.0810 hc         1 2II       0.044033
     59 H22         -8.1040    18.2340   -11.3250 hc         1 2II       0.044033
     60 H23         -7.6270    16.5210   -11.3960 hc         1 2II       0.044033
     61 H24         -3.0130    15.9700    -9.3100 h4         1 2II       0.163000
     62 H25         -2.4980    11.6540   -10.9300 h4         1 2II       0.018100
     63 H26         -0.7410    10.7010    -7.2900 h4         1 2II       0.018100
     64 H27          2.5290    16.5570    -0.7090 ha         1 2II       0.124000
     65 H28          3.9530    17.2640     1.2250 ha         1 2II       0.138000
     66 H29          8.5880    20.3650     1.3050 h1         1 2II       0.043367
     67 H30          8.2710    21.7120     0.1730 h1         1 2II       0.043367
     68 H31          7.3920    21.6280     1.7270 h1         1 2II       0.043367
     69 C9           2.5950    17.4920    -3.2950 c3         1 2II       0.206900
     70 C23         -5.3020    18.0660   -10.6380 c          1 2II       0.603100
@<TRIPOS>BOND
     1     1     2 1   
     2     1    36 1   
     3     1    38 1   
     4     1    39 1   
     5     2     3 ar  
     6     2     4 ar  
     7     3    32 ar  
     8     3    40 1   
     9     4     5 1   
    10     4    34 ar  
    11     5    35 2   
    12     5    36 1   
    13     6     7 ar  
    14     6    11 ar  
    15     6    31 1   
    16     7     8 ar  
    17     7    43 1   
    18     8     9 ar  
    19     8    44 1   
    20     9    10 ar  
    21     9    45 1   
    22    10    11 ar  
    23    10    12 1   
    24    11    46 1   
    25    12    25 1   
    26    12    30 2   
    27    13    14 1   
    28    13    16 1   
    29    13    23 1   
    30    13    47 1   
    31    14    15 1   
    32    14    48 1   
    33    14    49 1   
    34    15    22 1   
    35    15    50 1   
    36    15    51 1   
    37    16    22 1   
    38    16    52 1   
    39    16    53 1   
    40    17    21 1   
    41    17    54 1   
    42    17    55 1   
    43    17    70 1   
    44    18    26 ar  
    45    18    29 ar  
    46    18    56 1   
    47    19    26 ar  
    48    19    27 ar  
    49    19    57 1   
    50    20    70 2   
    51    21    58 1   
    52    21    59 1   
    53    21    60 1   
    54    22    70 1   
    55    23    24 1   
    56    23    30 1   
    57    24    25 2   
    58    24    61 1   
    59    25    26 1   
    60    27    28 ar  
    61    27    62 1   
    62    28    29 ar  
    63    29    63 1   
    64    31    69 1   
    65    32    33 ar  
    66    32    69 1   
    67    33    34 ar  
    68    33    64 1   
    69    34    65 1   
    70    36    37 1   
    71    37    66 1   
    72    37    67 1   
    73    37    68 1   
    74    41    69 1   
    75    42    69 1   
@<TRIPOS>SUBSTRUCTURE
     1 2II         1 TEMP              0 ****  ****    0 ROOT
