@<TRIPOS>MOLECULE
2II
   70    75     1     0     0
SMALL
abcg2


@<TRIPOS>ATOM
      1 C1           5.7760    20.4910    -0.7880 c5         1 2II       0.144300
      2 C2           4.9940    19.2820    -1.1930 ca         1 2II      -0.089300
      3 C3           4.2260    19.0440    -2.3190 ca         1 2II      -0.079000
      4 C7           5.1330    18.3120    -0.2170 ca         1 2II      -0.150600
      5 C8           5.9990    18.8370     0.8620 c          1 2II       0.581600
      6 C10          2.8800    16.0210    -5.5110 ca         1 2II       0.133100
      7 C11          3.5900    15.0100    -6.1620 ca         1 2II      -0.136000
      8 C12          3.0310    14.3750    -7.2550 ca         1 2II      -0.081000
      9 C13          1.7680    14.7250    -7.7150 ca         1 2II      -0.126000
     10 C14          1.0560    15.7280    -7.0670 ca         1 2II      -0.086500
     11 C15          1.6160    16.3810    -5.9670 ca         1 2II      -0.174000
     12 C16         -0.2720    16.1320    -7.5470 cc         1 2II       0.326500
     13 C19         -2.4170    18.7690    -8.3510 c5         1 2II       0.086300
     14 C20         -1.9240    19.3310    -9.6840 c5         1 2II      -0.112400
     15 C21         -2.8070    18.6390   -10.7160 c5         1 2II       0.098000
     16 C22         -3.9200    18.6950    -8.5670 c5         1 2II       0.088000
     17 C24         -6.3820    17.7600    -9.7360 c3         1 2II      -0.153400
     18 C27         -0.9650    13.0320    -7.1150 ca         1 2II      -0.160000
     19 C30         -2.1410    13.2740    -9.1660 ca         1 2II      -0.160000
     20 O2          -5.1640    17.7210   -11.8090 o          1 2II      -0.590100
     21 C25         -7.6220    17.3730   -10.5220 c3         1 2II      -0.077100
     22 N3          -4.0430    18.3840    -9.9840 n          1 2II      -0.436800
     23 N1          -1.8320    17.4610    -8.0880 na         1 2II       0.135800
     24 C18         -2.3110    16.2410    -8.3760 cd         1 2II      -0.144000
     25 C17         -1.3360    15.3300    -8.0270 cc         1 2II      -0.158000
     26 C26         -1.4680    13.8770    -8.1040 ca         1 2II       0.046000
     27 C29         -2.2730    11.8950    -9.1900 ca         1 2II       0.333400
     28 N4          -1.7850    11.0910    -8.2520 nb         1 2II      -0.666000
     29 C28         -1.1460    11.6650    -7.2390 ca         1 2II       0.333400
     30 N2          -0.5980    17.4120    -7.6000 nd         1 2II      -0.525800
     31 O1           3.4920    16.5890    -4.4520 os         1 2II      -0.343100
     32 C4           3.5940    17.8110    -2.4440 ca         1 2II      -0.072300
     33 C5           3.7430    16.8370    -1.4500 ca         1 2II      -0.095000
     34 C6           4.5140    17.0770    -0.3250 ca         1 2II      -0.044000
     35 O            6.3350    18.2650     1.8860 o          1 2II      -0.540000
     36 N            6.3440    20.0900     0.4790 n          1 2II      -0.419800
     37 C            7.1860    20.9770     1.2320 c3         1 2II       0.098300
     38 H1           6.5590    20.7390    -1.5120 h1         1 2II       0.060700
     39 H2           5.1420    21.3760    -0.6750 h1         1 2II       0.060700
     40 H3           4.1100    19.7970    -3.0900 ha         1 2II       0.121000
     41 H4           2.5340    18.4180    -4.2100 h1         1 2II       0.044200
     42 H5           1.8060    17.0570    -3.3430 h1         1 2II       0.044200
     43 H6           4.5720    14.7310    -5.8010 ha         1 2II       0.129000
     44 H7           3.5890    13.5960    -7.7590 ha         1 2II       0.118000
     45 H8           1.3510    14.2270    -8.5800 ha         1 2II       0.125000
     46 H9           1.0430    17.1590    -5.4810 ha         1 2II       0.125000
     47 H10         -2.1640    19.4040    -7.5040 h1         1 2II       0.096700
     48 H11         -0.8610    19.1630    -9.8470 hc         1 2II       0.074700
     49 H12         -2.0990    20.4080    -9.6910 hc         1 2II       0.074700
     50 H13         -2.3630    17.7010   -11.0640 h1         1 2II       0.064700
     51 H14         -2.9840    19.2640   -11.5910 h1         1 2II       0.064700
     52 H15         -4.3570    19.6690    -8.3280 h1         1 2II       0.060700
     53 H16         -4.4060    17.9550    -7.9310 h1         1 2II       0.060700
     54 H17         -6.1620    16.9940    -8.9850 hc         1 2II       0.053700
     55 H18         -6.5660    18.6770    -9.1680 hc         1 2II       0.053700
     56 H19         -0.4500    13.4280    -6.2500 ha         1 2II       0.126500
     57 H20         -2.5490    13.8660    -9.9750 ha         1 2II       0.126500
     58 H21         -8.4680    17.2590    -9.8450 hc         1 2II       0.044033
     59 H22         -7.8860    18.1330   -11.2570 hc         1 2II       0.044033
     60 H23         -7.4890    16.4290   -11.0480 hc         1 2II       0.044033
     61 H24         -3.3020    16.0730    -8.7680 h4         1 2II       0.163000
     62 H25         -2.7940    11.4200   -10.0140 h4         1 2II       0.018100
     63 H26         -0.7580    11.0020    -6.4730 h4         1 2II       0.018100
     64 H27          3.2400    15.8850    -1.5600 ha         1 2II       0.124000
     65 H28          4.6260    16.3250     0.4450 ha         1 2II       0.138000
     66 H29          7.5140    20.4820     2.1420 h1         1 2II       0.043367
     67 H30          8.0680    21.2600     0.6530 h1         1 2II       0.043367
     68 H31          6.6490    21.8870     1.5050 h1         1 2II       0.043367
     69 C9           2.7580    17.5030    -3.6510 c3         1 2II       0.206900
     70 C23         -5.1570    17.9500   -10.6070 c          1 2II       0.603100
@<TRIPOS>BOND
     1     1     2 1   
     2     1    36 1   
     3     1    38 1   
     4     1    39 1   
     5     2     3 ar  
     6     2     4 ar  
     7     3    32 ar  
     8     3    40 1   
     9     4     5 1   
    10     4    34 ar  
    11     5    35 2   
    12     5    36 1   
    13     6     7 ar  
    14     6    11 ar  
    15     6    31 1   
    16     7     8 ar  
    17     7    43 1   
    18     8     9 ar  
    19     8    44 1   
    20     9    10 ar  
    21     9    45 1   
    22    10    11 ar  
    23    10    12 1   
    24    11    46 1   
    25    12    25 1   
    26    12    30 2   
    27    13    14 1   
    28    13    16 1   
    29    13    23 1   
    30    13    47 1   
    31    14    15 1   
    32    14    48 1   
    33    14    49 1   
    34    15    22 1   
    35    15    50 1   
    36    15    51 1   
    37    16    22 1   
    38    16    52 1   
    39    16    53 1   
    40    17    21 1   
    41    17    54 1   
    42    17    55 1   
    43    17    70 1   
    44    18    26 ar  
    45    18    29 ar  
    46    18    56 1   
    47    19    26 ar  
    48    19    27 ar  
    49    19    57 1   
    50    20    70 2   
    51    21    58 1   
    52    21    59 1   
    53    21    60 1   
    54    22    70 1   
    55    23    24 1   
    56    23    30 1   
    57    24    25 2   
    58    24    61 1   
    59    25    26 1   
    60    27    28 ar  
    61    27    62 1   
    62    28    29 ar  
    63    29    63 1   
    64    31    69 1   
    65    32    33 ar  
    66    32    69 1   
    67    33    34 ar  
    68    33    64 1   
    69    34    65 1   
    70    36    37 1   
    71    37    66 1   
    72    37    67 1   
    73    37    68 1   
    74    41    69 1   
    75    42    69 1   
@<TRIPOS>SUBSTRUCTURE
     1 2II         1 TEMP              0 ****  ****    0 ROOT
