@<TRIPOS>MOLECULE
2IJ
   55    58     1     0     0
SMALL
abcg2


@<TRIPOS>ATOM
      1 C2          18.8010     6.1580     3.1340 ca         1 2IJ       0.607300
      2 C3          18.6790     6.0730     1.7380 ca         1 2IJ      -0.218600
      3 C8          17.5110     5.5510     0.9500 c          1 2IJ       0.630700
      4 C11         17.8020     5.9000     5.2620 ca         1 2IJ       0.096100
      5 C12         18.0980     4.8190     6.0720 ca         1 2IJ      -0.087000
      6 C13         18.0280     4.9570     7.4510 ca         1 2IJ      -0.127500
      7 C14         17.6820     6.1800     8.0040 ca         1 2IJ       0.120100
      8 C15         17.3980     7.2680     7.1850 ca         1 2IJ      -0.127500
      9 C16         17.4540     7.1250     5.8090 ca         1 2IJ      -0.087000
     10 O17         17.6830     6.2880     9.3660 os         1 2IJ      -0.253200
     11 C19         16.9030     7.6250    11.1360 ca         1 2IJ      -0.143500
     12 C20         15.8610     8.2000    11.8490 ca         1 2IJ      -0.086500
     13 C21         14.5470     8.0400    11.4300 ca         1 2IJ      -0.129000
     14 C22         14.2810     7.2900    10.2920 ca         1 2IJ      -0.086500
     15 C24         22.0910     7.5120     0.8350 c6         1 2IJ      -0.036400
     16 C27         24.7000     8.8110     0.5970 c6         1 2IJ       0.215800
     17 N1          19.8660     6.6200     3.7440 nb         1 2IJ      -0.741000
     18 C4          19.7760     6.5160     1.0120 ca         1 2IJ       0.000000
     19 C5          20.9150     7.0160     1.6290 ca         1 2IJ      -0.171300
     20 C6          20.8940     7.0390     3.0170 ca         1 2IJ       0.399900
     21 O7          17.7760     5.7220     3.8950 os         1 2IJ      -0.391400
     22 O9          17.6230     5.3980    -0.2590 o          1 2IJ      -0.620100
     23 N10         16.3710     5.2870     1.5990 nt         1 2IJ      -0.595000
     24 C18         16.6240     6.8780     9.9980 ca         1 2IJ       0.118100
     25 C23         15.3130     6.7030     9.5720 ca         1 2IJ      -0.143500
     26 C25         23.3820     6.7450     1.1420 c6         1 2IJ      -0.069400
     27 C26         24.5560     7.3130     0.3520 c6         1 2IJ      -0.104400
     28 N28         23.4540     9.4930     0.3160 nh         1 2IJ      -0.766600
     29 C29         22.3160     9.0150     1.0630 c6         1 2IJ       0.229800
     30 N31         24.2280    10.5320    -1.6130 n2         1 2IJ      -0.855100
     31 H1          18.3650     3.8660     5.6340 ha         1 2IJ       0.130000
     32 H2          18.2470     4.1140     8.0940 ha         1 2IJ       0.133500
     33 H3          17.1330     8.2270     7.6120 ha         1 2IJ       0.133500
     34 H4          17.2280     7.9670     5.1670 ha         1 2IJ       0.130000
     35 H6          16.0820     8.7810    12.7350 ha         1 2IJ       0.116000
     36 H7          13.7370     8.4930    11.9860 ha         1 2IJ       0.117000
     37 H8          13.2610     7.1520     9.9590 ha         1 2IJ       0.116000
     38 H9          21.8610     7.3750    -0.2270 hc         1 2IJ       0.063700
     39 H10         24.9690     8.9890     1.6440 h1         1 2IJ       0.063200
     40 H11         25.4830     9.2420    -0.0220 h1         1 2IJ       0.063200
     41 H13         19.7340     6.4700    -0.0690 ha         1 2IJ       0.149000
     42 H14         21.7440     7.4090     3.5800 h4         1 2IJ       0.025100
     43 H15         15.5860     4.9360     1.0760 hn         1 2IJ       0.325000
     44 H16         16.2650     5.3990     2.5910 hn         1 2IJ       0.325000
     45 H17         15.0890     6.1120     8.6930 ha         1 2IJ       0.127500
     46 H18         23.2440     5.6850     0.9160 hc         1 2IJ       0.044700
     47 H19         23.6040     6.8130     2.2130 hc         1 2IJ       0.044700
     48 H20         24.4080     7.1360    -0.7170 hc         1 2IJ       0.052700
     49 H21         25.4820     6.8060     0.6340 hc         1 2IJ       0.052700
     50 H22         22.4830     9.2000     2.1300 h1         1 2IJ       0.050200
     51 H23         21.4280     9.5800     0.7740 h1         1 2IJ       0.050200
     52 H24         23.8630    11.1270    -2.3450 hn         1 2IJ       0.383400
     53 C30         23.2870    10.2390    -0.8020 c2         1 2IJ       0.636100
     54 H5          17.9290     7.7530    11.4580 ha         1 2IJ       0.127500
     55 H12         22.2560    10.5820    -0.9170 h5         1 2IJ      -0.034200
@<TRIPOS>BOND
     1     1     2 ar  
     2     1    17 ar  
     3     1    21 1   
     4     2     3 1   
     5     2    18 ar  
     6     3    22 2   
     7     3    23 1   
     8     4     5 ar  
     9     4     9 ar  
    10     4    21 1   
    11     5     6 ar  
    12     5    31 1   
    13     6     7 ar  
    14     6    32 1   
    15     7     8 ar  
    16     7    10 1   
    17     8     9 ar  
    18     8    33 1   
    19     9    34 1   
    20    10    24 1   
    21    11    12 ar  
    22    11    24 ar  
    23    11    54 1   
    24    12    13 ar  
    25    12    35 1   
    26    13    14 ar  
    27    13    36 1   
    28    14    25 ar  
    29    14    37 1   
    30    15    19 1   
    31    15    26 1   
    32    15    29 1   
    33    15    38 1   
    34    16    27 1   
    35    16    28 1   
    36    16    39 1   
    37    16    40 1   
    38    17    20 ar  
    39    18    19 ar  
    40    18    41 1   
    41    19    20 ar  
    42    20    42 1   
    43    23    43 1   
    44    23    44 1   
    45    24    25 ar  
    46    25    45 1   
    47    26    27 1   
    48    26    46 1   
    49    26    47 1   
    50    27    48 1   
    51    27    49 1   
    52    28    29 1   
    53    28    53 1   
    54    29    50 1   
    55    29    51 1   
    56    30    52 1   
    57    30    53 2   
    58    53    55 1   
@<TRIPOS>SUBSTRUCTURE
     1 2IJ         1 TEMP              0 ****  ****    0 ROOT
