@<TRIPOS>MOLECULE
2IJ
   55    58     1     0     0
SMALL
No Charge or Current Charge


@<TRIPOS>ATOM
      1 C2          19.1690     5.5080     3.2530 ca         1 2IJ       0.607300
      2 C3          18.8120     5.8480     1.9280 ca         1 2IJ      -0.218600
      3 C8          17.4950     5.4780     1.2970 c          1 2IJ       0.630700
      4 C11         18.0580     5.0840     5.3630 ca         1 2IJ       0.096100
      5 C12         17.8240     4.0340     6.2660 ca         1 2IJ      -0.087000
      6 C13         17.5380     4.3140     7.6150 ca         1 2IJ      -0.127500
      7 C14         17.4680     5.6440     8.0590 ca         1 2IJ       0.120100
      8 C15         17.7020     6.7000     7.1550 ca         1 2IJ      -0.127500
      9 C16         17.9880     6.4210     5.8060 ca         1 2IJ      -0.087000
     10 O17         17.1990     5.8900     9.3870 os         1 2IJ      -0.253200
     11 C19         16.7680     7.6190    10.9890 ca         1 2IJ      -0.143500
     12 C20         15.9790     8.6870    11.4510 ca         1 2IJ      -0.086500
     13 C21         14.8320     9.0720    10.7350 ca         1 2IJ      -0.129000
     14 C22         14.4700     8.3880     9.5610 ca         1 2IJ      -0.086500
     15 C24         22.0120     7.7300     0.9140 c6         1 2IJ      -0.036400
     16 C27         24.6450     9.0520     0.6030 c6         1 2IJ       0.215800
     17 N1          20.3620     5.8360     3.7940 nb         1 2IJ      -0.741000
     18 C4          19.7430     6.5800     1.1600 ca         1 2IJ       0.000000
     19 C5          20.9780     6.9340     1.7260 ca         1 2IJ      -0.171300
     20 C6          21.2400     6.5330     3.0470 ca         1 2IJ       0.399900
     21 O7          18.3120     4.7780     4.0440 os         1 2IJ      -0.391400
     22 O9          17.2190     5.7970     0.1520 o          1 2IJ      -0.620100
     23 N10         16.5780     4.7780     1.9920 nt         1 2IJ      -0.595000
     24 C18         16.4160     6.9410     9.8090 ca         1 2IJ       0.118100
     25 C23         15.2590     7.3190     9.1000 ca         1 2IJ      -0.143500
     26 C25         23.2880     6.8860     0.6330 c6         1 2IJ      -0.069400
     27 C26         24.3520     7.7190    -0.1300 c6         1 2IJ      -0.104400
     28 N28         23.3780     9.8200     0.7780 nh         1 2IJ      -0.766600
     29 C29         22.4010     9.0700     1.6080 c6         1 2IJ       0.229800
     30 N31         23.7060    11.2760    -0.9810 n2         1 2IJ      -0.855100
     31 H1          17.8690     3.0040     5.9210 ha         1 2IJ       0.130000
     32 H2          17.3640     3.5000     8.3150 ha         1 2IJ       0.133500
     33 H3          17.6640     7.7320     7.4950 ha         1 2IJ       0.133500
     34 H4          18.1540     7.2430     5.1130 ha         1 2IJ       0.130000
     35 H6          16.2550     9.2140    12.3620 ha         1 2IJ       0.116000
     36 H7          14.2210     9.8990    11.0920 ha         1 2IJ       0.117000
     37 H8          13.5780     8.6830     9.0120 ha         1 2IJ       0.116000
     38 H9          21.5650     7.9860    -0.0570 hc         1 2IJ       0.063700
     39 H10         25.0780     8.8200     1.5880 h1         1 2IJ       0.063200
     40 H11         25.4050     9.6300     0.0570 h1         1 2IJ       0.063200
     41 H13         19.5130     6.8690     0.1350 ha         1 2IJ       0.149000
     42 H14         22.1870     6.7760     3.5280 h4         1 2IJ       0.025100
     43 H15         15.7020     4.5380     1.5540 hn         1 2IJ       0.325000
     44 H16         16.7780     4.4950     2.9410 hn         1 2IJ       0.325000
     45 H17         14.9690     6.7860     8.1980 ha         1 2IJ       0.127500
     46 H18         23.0270     5.9910     0.0510 hc         1 2IJ       0.044700
     47 H19         23.7200     6.5290     1.5780 hc         1 2IJ       0.044700
     48 H20         24.0020     7.9270    -1.1510 hc         1 2IJ       0.052700
     49 H21         25.2800     7.1390    -0.2300 hc         1 2IJ       0.052700
     50 H22         22.8460     8.8500     2.5900 h1         1 2IJ       0.050200
     51 H23         21.5020     9.6760     1.7940 h1         1 2IJ       0.050200
     52 H24         23.1450    11.8380    -1.6350 hn         1 2IJ       0.383400
     53 C30         22.8990    10.6270    -0.2350 c2         1 2IJ       0.636100
     54 H5          17.6540     7.3170    11.5420 ha         1 2IJ       0.127500
     55 H12         21.8130    10.7210    -0.2970 h5         1 2IJ      -0.034200
@<TRIPOS>BOND
     1     1     2 ar  
     2     1    17 ar  
     3     1    21 1   
     4     2     3 1   
     5     2    18 ar  
     6     3    22 2   
     7     3    23 1   
     8     4     5 ar  
     9     4     9 ar  
    10     4    21 1   
    11     5     6 ar  
    12     5    31 1   
    13     6     7 ar  
    14     6    32 1   
    15     7     8 ar  
    16     7    10 1   
    17     8     9 ar  
    18     8    33 1   
    19     9    34 1   
    20    10    24 1   
    21    11    12 ar  
    22    11    24 ar  
    23    11    54 1   
    24    12    13 ar  
    25    12    35 1   
    26    13    14 ar  
    27    13    36 1   
    28    14    25 ar  
    29    14    37 1   
    30    15    19 1   
    31    15    26 1   
    32    15    29 1   
    33    15    38 1   
    34    16    27 1   
    35    16    28 1   
    36    16    39 1   
    37    16    40 1   
    38    17    20 ar  
    39    18    19 ar  
    40    18    41 1   
    41    19    20 ar  
    42    20    42 1   
    43    23    43 1   
    44    23    44 1   
    45    24    25 ar  
    46    25    45 1   
    47    26    27 1   
    48    26    46 1   
    49    26    47 1   
    50    27    48 1   
    51    27    49 1   
    52    28    29 1   
    53    28    53 1   
    54    29    50 1   
    55    29    51 1   
    56    30    52 1   
    57    30    53 2   
    58    53    55 1   
@<TRIPOS>SUBSTRUCTURE
     1 2IJ         1 TEMP              0 ****  ****    0 ROOT
