@<TRIPOS>MOLECULE
2IK
   54    56     1     0     0
SMALL
No Charge or Current Charge


@<TRIPOS>ATOM
      1 C1          -0.1620    -1.1060     0.4390 ca         1 2IK      -0.098000
      2 C2          -1.3710    -1.7870     0.1970 ca         1 2IK      -0.079300
      3 C3          -1.3380    -3.0890    -0.3350 ca         1 2IK      -0.105000
      4 C4          -0.1080    -3.7050    -0.6170 ca         1 2IK      -0.111000
      5 C5           1.0950    -3.0230    -0.3720 ca         1 2IK      -0.105000
      6 C6           1.0790    -1.7140     0.1560 ca         1 2IK      -0.067300
      7 N11         -5.6590    -0.1830    -0.8650 nb         1 2IK      -0.753000
      8 C12         -6.8100     0.4170    -0.6030 ca         1 2IK       0.598900
      9 N12         -7.8370    -0.2640    -1.1150 nv         1 2IK      -1.053900
     10 C13         -6.9550     1.6000     0.1240 ca         1 2IK      -0.232000
     11 C29          2.3790    -0.9490     0.4220 c3         1 2IK       0.210800
     12 C14         -5.8000     2.2220     0.6220 ca         1 2IK       0.000700
     13 C15         -4.5680     1.6060     0.3490 ca         1 2IK      -0.215000
     14 C16         -4.5390     0.4100    -0.3940 ca         1 2IK       0.398300
     15 C19         -2.7030    -1.1140     0.5010 c3         1 2IK      -0.027100
     16 N21          4.1040     1.4320    -0.8900 nb         1 2IK      -0.752000
     17 C22          5.0850     2.3130    -0.7650 ca         1 2IK       0.601900
     18 N22          4.6550     3.5530    -1.0050 nv         1 2IK      -1.053900
     19 C23          6.4080     2.0040    -0.4420 ca         1 2IK      -0.230000
     20 C24          6.7440     0.6600    -0.2230 ca         1 2IK       0.002700
     21 C25          5.7170    -0.2900    -0.3480 ca         1 2IK      -0.223000
     22 C26          4.4150     0.1350    -0.6780 ca         1 2IK       0.391300
     23 C28          3.2810    -0.8650    -0.8280 c3         1 2IK      -0.166700
     24 N29          3.1080    -1.5560     1.5510 n8         1 2IK      -0.985200
     25 H221         5.3470     4.2420    -1.2790 hn         1 2IK       0.469000
     26 H222         3.7490     3.6150    -1.4520 hn         1 2IK       0.469000
     27 H23          7.1550     2.7880    -0.3640 ha         1 2IK       0.120000
     28 H25          5.9230    -1.3460    -0.1960 ha         1 2IK       0.120000
     29 H281         3.6820    -1.8550    -1.0700 hc         1 2IK       0.061200
     30 H282         2.6600    -0.5780    -1.6850 hc         1 2IK       0.061200
     31 H29          2.1160     0.0810     0.7070 h1         1 2IK       0.079700
     32 H291         3.3500    -2.5210     1.3050 hn         1 2IK       0.393000
     33 H292         4.0140    -1.0890     1.6550 hn         1 2IK       0.393000
     34 H1          -0.1880    -0.0980     0.8470 ha         1 2IK       0.112000
     35 H5           2.0390    -3.5150    -0.5930 ha         1 2IK       0.105000
     36 H4          -0.0880    -4.7130    -1.0250 ha         1 2IK       0.110000
     37 H3          -2.2650    -3.6230    -0.5300 ha         1 2IK       0.113000
     38 H191        -3.4560    -1.8670     0.7660 hc         1 2IK       0.055200
     39 H192        -2.6040    -0.4620     1.3780 hc         1 2IK       0.055200
     40 H15         -3.6410     2.0440     0.7080 ha         1 2IK       0.121000
     41 H121        -7.6140    -1.2090    -1.4050 hn         1 2IK       0.467000
     42 H122        -8.7510    -0.1180    -0.7030 hn         1 2IK       0.467000
     43 H13         -7.9380     2.0260     0.2960 ha         1 2IK       0.118000
     44 H171        -5.0790     3.5690     2.1670 hc         1 2IK       0.045700
     45 H172        -5.7810     4.3850     0.7590 hc         1 2IK       0.045700
     46 H173        -6.8330     3.6000     1.9490 hc         1 2IK       0.045700
     47 C27          8.1640     0.2470     0.1280 c3         1 2IK      -0.054800
     48 C18         -3.2200    -0.2840    -0.6940 c3         1 2IK      -0.125700
     49 C17         -5.8780     3.5140     1.4180 c3         1 2IK      -0.053800
     50 H271         8.1720    -0.6360     0.7780 hc         1 2IK       0.047367
     51 H272         8.7340     0.0050    -0.7760 hc         1 2IK       0.047367
     52 H273         8.6940     1.0490     0.6550 hc         1 2IK       0.047367
     53 H181        -3.3210    -0.9400    -1.5680 hc         1 2IK       0.056200
     54 H182        -2.4650     0.4650    -0.9620 hc         1 2IK       0.056200
@<TRIPOS>BOND
     1     1     2 ar  
     2     1     6 ar  
     3     1    34 1   
     4     2     3 ar  
     5     2    15 1   
     6     3     4 ar  
     7     3    37 1   
     8     4     5 ar  
     9     4    36 1   
    10     5     6 ar  
    11     5    35 1   
    12     6    11 1   
    13     7     8 ar  
    14     7    14 ar  
    15     8     9 1   
    16     8    10 ar  
    17     9    41 1   
    18     9    42 1   
    19    10    12 ar  
    20    10    43 1   
    21    11    23 1   
    22    11    24 1   
    23    11    31 1   
    24    12    13 ar  
    25    12    49 1   
    26    13    14 ar  
    27    13    40 1   
    28    14    48 1   
    29    15    38 1   
    30    15    39 1   
    31    15    48 1   
    32    16    17 ar  
    33    16    22 ar  
    34    17    18 1   
    35    17    19 ar  
    36    18    25 1   
    37    18    26 1   
    38    19    20 ar  
    39    19    27 1   
    40    20    21 ar  
    41    20    47 1   
    42    21    22 ar  
    43    21    28 1   
    44    22    23 1   
    45    23    29 1   
    46    23    30 1   
    47    24    32 1   
    48    24    33 1   
    49    44    49 1   
    50    45    49 1   
    51    46    49 1   
    52    47    50 1   
    53    47    51 1   
    54    47    52 1   
    55    48    53 1   
    56    48    54 1   
@<TRIPOS>SUBSTRUCTURE
     1 2IK         1 TEMP              0 ****  ****    0 ROOT
