@<TRIPOS>MOLECULE
2IK
   54    56     1     0     0
SMALL
bcc


@<TRIPOS>ATOM
      1 C1          -0.1480    -1.2110     0.5670 ca         1 2IK      -0.116000
      2 C2          -1.3480    -1.8700     0.3020 ca         1 2IK      -0.079300
      3 C3          -1.2960    -3.1630    -0.2090 ca         1 2IK      -0.123000
      4 C4          -0.0720    -3.7750    -0.4490 ca         1 2IK      -0.129000
      5 C5           1.1110    -3.1020    -0.1840 ca         1 2IK      -0.123000
      6 C6           1.0850    -1.8070     0.3320 ca         1 2IK      -0.067300
      7 N11         -5.4170    -0.3660    -0.4730 nb         1 2IK      -0.753000
      8 C12         -6.6140     0.1700    -0.2640 ca         1 2IK       0.664200
      9 N12         -7.6930    -0.6630    -0.3530 nv         1 2IK      -0.943500
     10 C13         -6.7880     1.5420    -0.0070 ca         1 2IK      -0.315300
     11 C29          2.3630    -1.0430     0.5870 c3         1 2IK       0.210800
     12 C14         -5.6810     2.3630     0.0260 ca         1 2IK       0.000700
     13 C15         -4.4250     1.7870    -0.1980 ca         1 2IK      -0.298300
     14 C16         -4.3440     0.4280    -0.4400 ca         1 2IK       0.463600
     15 C19         -2.6630    -1.1770     0.5220 c3         1 2IK      -0.027100
     16 N21          3.9360     1.5140    -0.1170 nb         1 2IK      -0.752000
     17 C22          4.9650     2.3210     0.1110 ca         1 2IK       0.667200
     18 N22          4.6860     3.5600     0.6130 nv         1 2IK      -0.943500
     19 C23          6.2970     1.9210    -0.1070 ca         1 2IK      -0.313300
     20 C24          6.5470     0.6450    -0.5640 ca         1 2IK       0.002700
     21 C25          5.4540    -0.2000    -0.7910 ca         1 2IK      -0.306300
     22 C26          4.1760     0.2770    -0.5610 ca         1 2IK       0.456600
     23 C28          2.9710    -0.5940    -0.7590 c3         1 2IK      -0.166700
     24 N29          3.2670    -1.8080     1.4340 n8         1 2IK      -0.874800
     25 H221         5.3800     4.2790     0.4900 hn         1 2IK       0.413800
     26 H222         3.7390     3.8810     0.5010 hn         1 2IK       0.413800
     27 H23          7.1080     2.6140     0.0810 ha         1 2IK       0.138000
     28 H25          5.6040    -1.2100    -1.1510 ha         1 2IK       0.138000
     29 H281         3.2380    -1.4760    -1.3500 hc         1 2IK       0.061200
     30 H282         2.2140    -0.0430    -1.3240 hc         1 2IK       0.061200
     31 H29          2.1020    -0.1350     1.1390 h1         1 2IK       0.079700
     32 H291         3.6030    -2.6260     0.9390 hn         1 2IK       0.337800
     33 H292         4.0950    -1.2550     1.6240 hn         1 2IK       0.337800
     34 H1          -0.1780    -0.2030     0.9700 ha         1 2IK       0.130000
     35 H5           2.0540    -3.5950    -0.3890 ha         1 2IK       0.123000
     36 H4          -0.0420    -4.7820    -0.8460 ha         1 2IK       0.128000
     37 H3          -2.2170    -3.6930    -0.4190 ha         1 2IK       0.131000
     38 H191        -3.4580    -1.9160     0.6400 hc         1 2IK       0.055200
     39 H192        -2.6300    -0.5930     1.4460 hc         1 2IK       0.055200
     40 H15         -3.5290     2.3930    -0.1760 ha         1 2IK       0.139000
     41 H121        -7.4980    -1.6470    -0.2630 hn         1 2IK       0.411800
     42 H122        -8.5420    -0.3710     0.1010 hn         1 2IK       0.411800
     43 H13         -7.7810     1.9400     0.1640 ha         1 2IK       0.136000
     44 H171        -5.1550     4.1430     1.1040 hc         1 2IK       0.045700
     45 H172        -5.5120     4.4070    -0.5930 hc         1 2IK       0.045700
     46 H173        -6.8290     4.1120     0.5430 hc         1 2IK       0.045700
     47 C27          7.9430     0.1640    -0.8140 c3         1 2IK      -0.054800
     48 C18         -3.0170    -0.2460    -0.6460 c3         1 2IK      -0.125700
     49 C17         -5.8080     3.8330     0.2870 c3         1 2IK      -0.053800
     50 H271         8.1790    -0.6910    -0.1780 hc         1 2IK       0.047367
     51 H272         8.0600    -0.1670    -1.8470 hc         1 2IK       0.047367
     52 H273         8.6810     0.9410    -0.6220 hc         1 2IK       0.047367
     53 H181        -3.0440    -0.8290    -1.5710 hc         1 2IK       0.056200
     54 H182        -2.2340     0.5060    -0.7640 hc         1 2IK       0.056200
@<TRIPOS>BOND
     1     1     2 ar  
     2     1     6 ar  
     3     1    34 1   
     4     2     3 ar  
     5     2    15 1   
     6     3     4 ar  
     7     3    37 1   
     8     4     5 ar  
     9     4    36 1   
    10     5     6 ar  
    11     5    35 1   
    12     6    11 1   
    13     7     8 ar  
    14     7    14 ar  
    15     8     9 1   
    16     8    10 ar  
    17     9    41 1   
    18     9    42 1   
    19    10    12 ar  
    20    10    43 1   
    21    11    23 1   
    22    11    24 1   
    23    11    31 1   
    24    12    13 ar  
    25    12    49 1   
    26    13    14 ar  
    27    13    40 1   
    28    14    48 1   
    29    15    38 1   
    30    15    39 1   
    31    15    48 1   
    32    16    17 ar  
    33    16    22 ar  
    34    17    18 1   
    35    17    19 ar  
    36    18    25 1   
    37    18    26 1   
    38    19    20 ar  
    39    19    27 1   
    40    20    21 ar  
    41    20    47 1   
    42    21    22 ar  
    43    21    28 1   
    44    22    23 1   
    45    23    29 1   
    46    23    30 1   
    47    24    32 1   
    48    24    33 1   
    49    44    49 1   
    50    45    49 1   
    51    46    49 1   
    52    47    50 1   
    53    47    51 1   
    54    47    52 1   
    55    48    53 1   
    56    48    54 1   
@<TRIPOS>SUBSTRUCTURE
     1 2IK         1 TEMP              0 ****  ****    0 ROOT
