@<TRIPOS>MOLECULE
2IL
   79    78     1     0     0
SMALL
abcg2


@<TRIPOS>ATOM
      1 C1          -0.6490     5.5600    -0.7140 c          1 2IL       0.722000
      2 O1           0.1570     6.5140    -0.7320 o          1 2IL      -0.735500
      3 C2          -1.0230     5.0370     0.6870 c3         1 2IL      -0.234400
      4 O2          -1.1940     5.0390    -1.7050 o          1 2IL      -0.735500
      5 C3          -1.3770     3.5630     0.8150 c3         1 2IL       0.218300
      6 O3          -0.3520     2.7530     0.1980 os         1 2IL      -0.429100
      7 C4          -2.7040     3.1400     0.2080 c3         1 2IL      -0.079400
      8 O4           0.9800     2.8280     1.9950 o          1 2IL      -0.524000
      9 C5          -3.0860     1.7010     0.5310 c3         1 2IL      -0.073400
     10 C6          -4.4700     1.3270     0.0120 c3         1 2IL      -0.075400
     11 C7          -4.8630    -0.1080     0.3380 c3         1 2IL      -0.074400
     12 C8          -6.2540    -0.4840    -0.1600 c3         1 2IL      -0.074400
     13 C9          -6.6460    -1.9160     0.1820 c3         1 2IL      -0.074400
     14 C10         -8.0480    -2.2910    -0.2850 c3         1 2IL      -0.074400
     15 C11         -8.4340    -3.7220     0.0670 c3         1 2IL      -0.074400
     16 C12         -9.8390    -4.1010    -0.3860 c3         1 2IL      -0.075400
     17 C13        -10.2200    -5.5330    -0.0310 c3         1 2IL      -0.075400
     18 C14        -11.6270    -5.9070    -0.4790 c3         1 2IL      -0.088100
     19 C15          0.7520     2.4610     0.8670 c          1 2IL       0.605100
     20 C16          1.6790     1.6070     0.0420 c3         1 2IL      -0.143400
     21 C17          2.9620     1.2200     0.7590 c3         1 2IL      -0.065400
     22 C18          3.8720     0.3690    -0.1170 c3         1 2IL      -0.076400
     23 C19          5.1710    -0.0180     0.5790 c3         1 2IL      -0.074400
     24 C20          6.0920    -0.8650    -0.2880 c3         1 2IL      -0.074400
     25 C21          7.3940    -1.2400     0.4090 c3         1 2IL      -0.074400
     26 C22          8.3200    -2.0890    -0.4510 c3         1 2IL      -0.074400
     27 C23          9.6310    -2.4400     0.2420 c3         1 2IL      -0.074400
     28 C24         10.5600    -3.2900    -0.6140 c3         1 2IL      -0.075400
     29 C25         11.8710    -3.6390     0.0810 c3         1 2IL      -0.075400
     30 C26         12.7860    -4.4990    -0.7780 c3         1 2IL      -0.087100
     31 H2          -0.2150     5.2710     1.3830 hc         1 2IL       0.036200
     32 H2A         -1.8850     5.6140     1.0430 hc         1 2IL       0.036200
     33 H3          -1.4120     3.3200     1.8830 h1         1 2IL       0.015700
     34 H4          -3.4680     3.8110     0.6160 hc         1 2IL       0.068200
     35 H4A         -2.6910     3.3050    -0.8690 hc         1 2IL       0.068200
     36 H5          -2.3460     1.0160     0.1070 hc         1 2IL       0.031700
     37 H5A         -3.0560     1.5500     1.6160 hc         1 2IL       0.031700
     38 H6          -5.2120     2.0120     0.4360 hc         1 2IL       0.037700
     39 H6A         -4.5040     1.4770    -1.0730 hc         1 2IL       0.037700
     40 H7          -4.1250    -0.7940    -0.0940 hc         1 2IL       0.033200
     41 H7A         -4.8160    -0.2570     1.4220 hc         1 2IL       0.033200
     42 H8          -6.9890     0.2060     0.2690 hc         1 2IL       0.036200
     43 H8A         -6.3030    -0.3420    -1.2450 hc         1 2IL       0.036200
     44 H9          -5.9190    -2.6070    -0.2590 hc         1 2IL       0.034700
     45 H9A         -6.5780    -2.0580     1.2660 hc         1 2IL       0.034700
     46 H10         -8.7720    -1.5990     0.1590 hc         1 2IL       0.036200
     47 H10A        -8.1210    -2.1500    -1.3690 hc         1 2IL       0.036200
     48 H11         -7.7100    -4.4130    -0.3780 hc         1 2IL       0.035200
     49 H11A        -8.3550    -3.8600     1.1510 hc         1 2IL       0.035200
     50 H12        -10.5630    -3.4110     0.0620 hc         1 2IL       0.036700
     51 H12A        -9.9230    -3.9630    -1.4700 hc         1 2IL       0.036700
     52 H13         -9.4980    -6.2220    -0.4810 hc         1 2IL       0.035700
     53 H13A       -10.1340    -5.6710     1.0510 hc         1 2IL       0.035700
     54 H14        -11.8610    -6.9440    -0.2380 hc         1 2IL       0.029367
     55 H14A       -12.3760    -5.2770     0.0050 hc         1 2IL       0.029367
     56 H14B       -11.7440    -5.7850    -1.5580 hc         1 2IL       0.029367
     57 H16          1.1330     0.7130    -0.2750 hc         1 2IL       0.069700
     58 H16A         1.9080     2.1470    -0.8830 hc         1 2IL       0.069700
     59 H17          3.4980     2.1210     1.0710 hc         1 2IL       0.049200
     60 H17A         2.7240     0.6730     1.6750 hc         1 2IL       0.049200
     61 H18          3.3410    -0.5380    -0.4260 hc         1 2IL       0.035700
     62 H18A         4.1040     0.9110    -1.0400 hc         1 2IL       0.035700
     63 H19          5.6980     0.8910     0.8910 hc         1 2IL       0.037200
     64 H19A         4.9400    -0.5610     1.5020 hc         1 2IL       0.037200
     65 H20          5.5690    -1.7760    -0.5970 hc         1 2IL       0.035700
     66 H20A         6.3220    -0.3230    -1.2130 hc         1 2IL       0.035700
     67 H21          7.9160    -0.3270     0.7150 hc         1 2IL       0.036200
     68 H21A         7.1660    -1.7770     1.3370 hc         1 2IL       0.036200
     69 H22          7.8040    -3.0110    -0.7420 hc         1 2IL       0.035700
     70 H22A         8.5360    -1.5600    -1.3860 hc         1 2IL       0.035700
     71 H23         10.1450    -1.5170     0.5320 hc         1 2IL       0.035700
     72 H23A         9.4150    -2.9680     1.1780 hc         1 2IL       0.035700
     73 H24         10.0460    -4.2130    -0.9050 hc         1 2IL       0.036200
     74 H24A        10.7780    -2.7610    -1.5490 hc         1 2IL       0.036200
     75 H25         12.3870    -2.7150     0.3610 hc         1 2IL       0.036200
     76 H25A        11.6540    -4.1560     1.0210 hc         1 2IL       0.036200
     77 H26         13.0340    -3.9950    -1.7140 hc         1 2IL       0.029367
     78 H26A        13.7210    -4.7290    -0.2680 hc         1 2IL       0.029367
     79 H26B        12.3070    -5.4460    -1.0350 hc         1 2IL       0.029367
@<TRIPOS>BOND
     1     1     2 1   
     2     1     3 1   
     3     1     4 1   
     4     3     5 1   
     5     3    31 1   
     6     3    32 1   
     7     5     6 1   
     8     5     7 1   
     9     5    33 1   
    10     6    19 1   
    11     7     9 1   
    12     7    34 1   
    13     7    35 1   
    14     8    19 2   
    15     9    10 1   
    16     9    36 1   
    17     9    37 1   
    18    10    11 1   
    19    10    38 1   
    20    10    39 1   
    21    11    12 1   
    22    11    40 1   
    23    11    41 1   
    24    12    13 1   
    25    12    42 1   
    26    12    43 1   
    27    13    14 1   
    28    13    44 1   
    29    13    45 1   
    30    14    15 1   
    31    14    46 1   
    32    14    47 1   
    33    15    16 1   
    34    15    48 1   
    35    15    49 1   
    36    16    17 1   
    37    16    50 1   
    38    16    51 1   
    39    17    18 1   
    40    17    52 1   
    41    17    53 1   
    42    18    54 1   
    43    18    55 1   
    44    18    56 1   
    45    19    20 1   
    46    20    21 1   
    47    20    57 1   
    48    20    58 1   
    49    21    22 1   
    50    21    59 1   
    51    21    60 1   
    52    22    23 1   
    53    22    61 1   
    54    22    62 1   
    55    23    24 1   
    56    23    63 1   
    57    23    64 1   
    58    24    25 1   
    59    24    65 1   
    60    24    66 1   
    61    25    26 1   
    62    25    67 1   
    63    25    68 1   
    64    26    27 1   
    65    26    69 1   
    66    26    70 1   
    67    27    28 1   
    68    27    71 1   
    69    27    72 1   
    70    28    29 1   
    71    28    73 1   
    72    28    74 1   
    73    29    30 1   
    74    29    75 1   
    75    29    76 1   
    76    30    77 1   
    77    30    78 1   
    78    30    79 1   
@<TRIPOS>SUBSTRUCTURE
     1 2IL         1 TEMP              0 ****  ****    0 ROOT
