@<TRIPOS>MOLECULE
2IL
   79    78     1     0     0
SMALL
No Charge or Current Charge


@<TRIPOS>ATOM
      1 C1           0.2640     3.9810    -0.7880 c          1 2IL       0.722000
      2 O1           1.4170     3.5890    -0.8720 o          1 2IL      -0.735500
      3 C2          -0.3460     4.1570     0.6070 c3         1 2IL      -0.234400
      4 O2          -0.4190     4.2790    -1.7560 o          1 2IL      -0.735500
      5 C3          -1.0930     2.8820     1.0820 c3         1 2IL       0.218300
      6 O3          -0.1760     1.7740     1.1270 os         1 2IL      -0.429100
      7 C4          -2.2770     2.4630     0.1740 c3         1 2IL      -0.079400
      8 O4           0.7150     2.4010     3.1560 o          1 2IL      -0.524000
      9 C5          -3.1320     1.3150     0.7600 c3         1 2IL      -0.073400
     10 C6          -4.3240     0.9260    -0.1430 c3         1 2IL      -0.075400
     11 C7          -5.1870    -0.2080     0.4530 c3         1 2IL      -0.074400
     12 C8          -6.3790    -0.6000    -0.4490 c3         1 2IL      -0.074400
     13 C9          -7.2500    -1.7220     0.1570 c3         1 2IL      -0.074400
     14 C10         -8.4480    -2.1110    -0.7370 c3         1 2IL      -0.074400
     15 C11         -9.3200    -3.2290    -0.1230 c3         1 2IL      -0.074400
     16 C12        -10.5200    -3.6180    -1.0150 c3         1 2IL      -0.075400
     17 C13        -11.3930    -4.7330    -0.3980 c3         1 2IL      -0.075400
     18 C14        -12.5910    -5.1210    -1.2870 c3         1 2IL      -0.088100
     19 C15          0.7050     1.6710     2.1730 c          1 2IL       0.605100
     20 C16          1.6130     0.4460     2.0280 c3         1 2IL      -0.143400
     21 C17          3.0110     0.8460     1.5030 c3         1 2IL      -0.065400
     22 C18          3.9590    -0.3600     1.3260 c3         1 2IL      -0.076400
     23 C19          5.3590     0.0450     0.8130 c3         1 2IL      -0.074400
     24 C20          6.3060    -1.1590     0.6200 c3         1 2IL      -0.074400
     25 C21          7.7060    -0.7480     0.1140 c3         1 2IL      -0.074400
     26 C22          8.6500    -1.9520    -0.0990 c3         1 2IL      -0.074400
     27 C23         10.0490    -1.5390    -0.6060 c3         1 2IL      -0.074400
     28 C24         10.9870    -2.7440    -0.8390 c3         1 2IL      -0.075400
     29 C25         12.3850    -2.3310    -1.3510 c3         1 2IL      -0.075400
     30 C26         13.3180    -3.5330    -1.5930 c3         1 2IL      -0.087100
     31 H2           0.4430     4.3470     1.3430 hc         1 2IL       0.036200
     32 H2A         -1.1090     4.9440     0.5850 hc         1 2IL       0.036200
     33 H3          -1.5060     3.0780     2.0810 h1         1 2IL       0.015700
     34 H4          -2.9210     3.3350     0.0090 hc         1 2IL       0.068200
     35 H4A         -1.8960     2.1590    -0.8080 hc         1 2IL       0.068200
     36 H5          -2.5010     0.4310     0.9170 hc         1 2IL       0.031700
     37 H5A         -3.5100     1.6160     1.7450 hc         1 2IL       0.031700
     38 H6          -4.9550     1.8090    -0.3070 hc         1 2IL       0.037700
     39 H6A         -3.9460     0.6150    -1.1240 hc         1 2IL       0.037700
     40 H7          -4.5570    -1.0900     0.6200 hc         1 2IL       0.033200
     41 H7A         -5.5650     0.1060     1.4340 hc         1 2IL       0.033200
     42 H8          -7.0040     0.2850    -0.6240 hc         1 2IL       0.036200
     43 H8A         -6.0010    -0.9240    -1.4260 hc         1 2IL       0.036200
     44 H9          -6.6260    -2.6090     0.3290 hc         1 2IL       0.034700
     45 H9A         -7.6220    -1.3990     1.1370 hc         1 2IL       0.034700
     46 H10         -9.0700    -1.2240    -0.9110 hc         1 2IL       0.036200
     47 H10A        -8.0760    -2.4400    -1.7150 hc         1 2IL       0.036200
     48 H11         -8.6980    -4.1160     0.0520 hc         1 2IL       0.035200
     49 H11A        -9.6910    -2.8990     0.8550 hc         1 2IL       0.035200
     50 H12        -11.1410    -2.7310    -1.1910 hc         1 2IL       0.036700
     51 H12A       -10.1490    -3.9510    -1.9920 hc         1 2IL       0.036700
     52 H13        -10.7770    -5.6230    -0.2230 hc         1 2IL       0.035700
     53 H13A       -11.7670    -4.4040     0.5800 hc         1 2IL       0.035700
     54 H14        -13.1800    -5.9140    -0.8100 hc         1 2IL       0.029367
     55 H14A       -13.2470    -4.2580    -1.4510 hc         1 2IL       0.029367
     56 H14B       -12.2480    -5.4870    -2.2620 hc         1 2IL       0.029367
     57 H16          1.7220    -0.0370     3.0060 hc         1 2IL       0.069700
     58 H16A         1.1720    -0.2470     1.3020 hc         1 2IL       0.069700
     59 H17          2.9000     1.3610     0.5400 hc         1 2IL       0.049200
     60 H17A         3.4660     1.5640     2.1980 hc         1 2IL       0.049200
     61 H18          4.0640    -0.8820     2.2850 hc         1 2IL       0.035700
     62 H18A         3.5100    -1.0720     0.6210 hc         1 2IL       0.035700
     63 H19          5.2530     0.5760    -0.1420 hc         1 2IL       0.037200
     64 H19A         5.8120     0.7490     1.5220 hc         1 2IL       0.037200
     65 H20          6.4090    -1.6940     1.5720 hc         1 2IL       0.035700
     66 H20A         5.8560    -1.8600    -0.0950 hc         1 2IL       0.035700
     67 H21          7.6020    -0.2020    -0.8320 hc         1 2IL       0.036200
     68 H21A         8.1610    -0.0570     0.8350 hc         1 2IL       0.036200
     69 H22          8.7560    -2.4990     0.8470 hc         1 2IL       0.035700
     70 H22A         8.1950    -2.6430    -0.8200 hc         1 2IL       0.035700
     71 H23          9.9420    -0.9810    -1.5450 hc         1 2IL       0.035700
     72 H23A        10.5100    -0.8590     0.1210 hc         1 2IL       0.035700
     73 H24         11.0970    -3.3020     0.1000 hc         1 2IL       0.036200
     74 H24A        10.5250    -3.4250    -1.5640 hc         1 2IL       0.036200
     75 H25         12.2780    -1.7700    -2.2870 hc         1 2IL       0.036200
     76 H25A        12.8540    -1.6560    -0.6240 hc         1 2IL       0.036200
     77 H26         12.8900    -4.2120    -2.3400 hc         1 2IL       0.029367
     78 H26A        14.2940    -3.1920    -1.9580 hc         1 2IL       0.029367
     79 H26B        13.4760    -4.0950    -0.6640 hc         1 2IL       0.029367
@<TRIPOS>BOND
     1     1     2 1   
     2     1     3 1   
     3     1     4 1   
     4     3     5 1   
     5     3    31 1   
     6     3    32 1   
     7     5     6 1   
     8     5     7 1   
     9     5    33 1   
    10     6    19 1   
    11     7     9 1   
    12     7    34 1   
    13     7    35 1   
    14     8    19 2   
    15     9    10 1   
    16     9    36 1   
    17     9    37 1   
    18    10    11 1   
    19    10    38 1   
    20    10    39 1   
    21    11    12 1   
    22    11    40 1   
    23    11    41 1   
    24    12    13 1   
    25    12    42 1   
    26    12    43 1   
    27    13    14 1   
    28    13    44 1   
    29    13    45 1   
    30    14    15 1   
    31    14    46 1   
    32    14    47 1   
    33    15    16 1   
    34    15    48 1   
    35    15    49 1   
    36    16    17 1   
    37    16    50 1   
    38    16    51 1   
    39    17    18 1   
    40    17    52 1   
    41    17    53 1   
    42    18    54 1   
    43    18    55 1   
    44    18    56 1   
    45    19    20 1   
    46    20    21 1   
    47    20    57 1   
    48    20    58 1   
    49    21    22 1   
    50    21    59 1   
    51    21    60 1   
    52    22    23 1   
    53    22    61 1   
    54    22    62 1   
    55    23    24 1   
    56    23    63 1   
    57    23    64 1   
    58    24    25 1   
    59    24    65 1   
    60    24    66 1   
    61    25    26 1   
    62    25    67 1   
    63    25    68 1   
    64    26    27 1   
    65    26    69 1   
    66    26    70 1   
    67    27    28 1   
    68    27    71 1   
    69    27    72 1   
    70    28    29 1   
    71    28    73 1   
    72    28    74 1   
    73    29    30 1   
    74    29    75 1   
    75    29    76 1   
    76    30    77 1   
    77    30    78 1   
    78    30    79 1   
@<TRIPOS>SUBSTRUCTURE
     1 2IL         1 TEMP              0 ****  ****    0 ROOT
