@<TRIPOS>MOLECULE
2IM
   17    17     1     0     0
SMALL
abcg2


@<TRIPOS>ATOM
      1 N2           2.3450    -0.1790    -0.0490 n2         1 2IM      -0.842100
      2 C1           1.0710    -0.0740    -0.1210 c2         1 2IM       0.622200
      3 N1           0.3810     1.1020    -0.1580 nu         1 2IM      -0.943400
      4 C4          -1.0200     1.2490     0.2040 c6         1 2IM       0.226800
      5 C5          -1.8270     0.0270    -0.1890 c6         1 2IM      -0.087400
      6 C3          -1.1430    -1.2290     0.3260 c6         1 2IM      -0.076400
      7 C2           0.2520    -1.3300    -0.2780 c6         1 2IM      -0.120700
      8 HN2          2.7830     0.7360     0.0270 hn         1 2IM       0.365400
      9 HN1          0.9380     1.9290     0.0000 hn         1 2IM       0.460000
     10 H41         -1.4080     2.1390    -0.2940 h1         1 2IM       0.033200
     11 H42         -1.1230     1.4160     1.2830 h1         1 2IM       0.033200
     12 H51         -1.9240    -0.0250    -1.2770 hc         1 2IM       0.050700
     13 H52         -2.8350     0.1250     0.2180 hc         1 2IM       0.050700
     14 H31         -1.7200    -2.1200     0.0730 hc         1 2IM       0.047200
     15 H32         -1.0790    -1.1940     1.4180 hc         1 2IM       0.047200
     16 H21          0.1600    -1.5290    -1.3510 hc         1 2IM       0.067700
     17 H22          0.8170    -2.1600     0.1450 hc         1 2IM       0.067700
@<TRIPOS>BOND
     1     1     2 2   
     2     1     8 1   
     3     2     3 1   
     4     2     7 1   
     5     3     4 1   
     6     3     9 1   
     7     4     5 1   
     8     4    10 1   
     9     4    11 1   
    10     5     6 1   
    11     5    12 1   
    12     5    13 1   
    13     6     7 1   
    14     6    14 1   
    15     6    15 1   
    16     7    16 1   
    17     7    17 1   
@<TRIPOS>SUBSTRUCTURE
     1 2IM         1 TEMP              0 ****  ****    0 ROOT
