@<TRIPOS>MOLECULE
2IM
   17    17     1     0     0
SMALL
No Charge or Current Charge


@<TRIPOS>ATOM
      1 N2           2.3370    -0.0590    -0.2120 n2         1 2IM      -0.842100
      2 C1           1.0730    -0.1120    -0.1440 c2         1 2IM       0.622200
      3 N1           0.4400     1.1000    -0.0480 nu         1 2IM      -0.943400
      4 C4          -0.9880     1.2700     0.2790 c6         1 2IM       0.226800
      5 C5          -1.8070     0.0590    -0.2200 c6         1 2IM      -0.087400
      6 C3          -1.1880    -1.2610     0.2940 c6         1 2IM      -0.076400
      7 C2           0.2680    -1.4030    -0.2190 c6         1 2IM      -0.120700
      8 HN2          2.6290     0.9210    -0.1530 hn         1 2IM       0.365400
      9 HN1          1.0280     1.9280    -0.0530 hn         1 2IM       0.460000
     10 H41         -1.3800     2.1980    -0.1620 h1         1 2IM       0.033200
     11 H42         -1.1080     1.3480     1.3700 h1         1 2IM       0.033200
     12 H51         -1.8400     0.0560    -1.3180 hc         1 2IM       0.050700
     13 H52         -2.8460     0.1480     0.1250 hc         1 2IM       0.050700
     14 H31         -1.7900    -2.1210    -0.0300 hc         1 2IM       0.047200
     15 H32         -1.1950    -1.2660     1.3930 hc         1 2IM       0.047200
     16 H21          0.2520    -1.7310    -1.2670 hc         1 2IM       0.067700
     17 H22          0.7830    -2.1930     0.3420 hc         1 2IM       0.067700
@<TRIPOS>BOND
     1     1     2 2   
     2     1     8 1   
     3     2     3 1   
     4     2     7 1   
     5     3     4 1   
     6     3     9 1   
     7     4     5 1   
     8     4    10 1   
     9     4    11 1   
    10     5     6 1   
    11     5    12 1   
    12     5    13 1   
    13     6     7 1   
    14     6    14 1   
    15     6    15 1   
    16     7    16 1   
    17     7    17 1   
@<TRIPOS>SUBSTRUCTURE
     1 2IM         1 TEMP              0 ****  ****    0 ROOT
