@<TRIPOS>MOLECULE
2IN
   56    57     1     0     0
SMALL
No Charge or Current Charge


@<TRIPOS>ATOM
      1 N4          -0.3960     0.6980     9.5980 nv         1 2IN      -1.033200
      2 N5          -0.5160    -1.5350     9.4620 n2         1 2IN      -0.841100
      3 C18         -0.1060    -0.4470     8.9560 ce         1 2IN       0.659800
      4 C14          0.5300    -0.3530     7.6050 ca         1 2IN      -0.189900
      5 C13          0.3260    -1.3620     6.6340 ca         1 2IN      -0.089000
      6 C12          0.9550    -1.2910     5.3790 ca         1 2IN      -0.100500
      7 C17          1.8130    -0.2200     5.0710 ca         1 2IN      -0.103300
      8 C16          2.0370     0.7790     6.0350 ca         1 2IN      -0.100500
      9 C15          1.4090     0.7110     7.2910 ca         1 2IN      -0.089000
     10 C11          2.4910    -0.1460     3.7110 c3         1 2IN       0.143300
     11 N3           1.6450     0.5390     2.7310 ns         1 2IN      -0.497900
     12 C10          0.8120    -0.0940     1.8350 c          1 2IN       0.592100
     13 O5           0.7310    -1.3150     1.7690 o          1 2IN      -0.614100
     14 C8          -0.0040     0.8550     0.9260 c3         1 2IN       0.020000
     15 N2          -0.8720     0.1120    -0.0160 ns         1 2IN      -0.490900
     16 C7          -1.7120     0.7060    -0.9380 c          1 2IN       0.592100
     17 O4          -1.7900     1.9260    -1.0240 o          1 2IN      -0.593100
     18 C5          -2.5230    -0.2860    -1.8480 c3         1 2IN       0.150500
     19 C6          -4.0530    -0.0630    -1.6810 c3         1 2IN       0.163600
     20 O3          -4.5040     1.1020    -2.4010 oh         1 2IN      -0.656000
     21 N1          -2.1590    -0.2580    -3.3060 n7         1 2IN      -0.887300
     22 S1          -0.5670    -0.4400    -3.7600 s6         1 2IN       1.183100
     23 O2           0.1110     0.8050    -3.3990 o          1 2IN      -0.529500
     24 O1          -0.1330    -1.7250    -3.2080 o          1 2IN      -0.529500
     25 C1          -0.7020    -0.5790    -5.5510 c3         1 2IN      -0.247100
     26 C4           0.6290    -0.7810    -6.2660 ca         1 2IN      -0.083300
     27 C3           1.3810     0.3310    -6.6920 ca         1 2IN      -0.084500
     28 C2           2.6080     0.1440    -7.3530 ca         1 2IN      -0.109500
     29 C21          3.0890    -1.1540    -7.5910 ca         1 2IN      -0.099000
     30 C20          2.3410    -2.2670    -7.1690 ca         1 2IN      -0.109500
     31 C19          1.1140    -2.0800    -6.5090 ca         1 2IN      -0.084500
     32 HN41        -1.1010     0.5910    10.3170 hn         1 2IN       0.469500
     33 HN42        -0.4860     1.5170     9.0100 hn         1 2IN       0.469500
     34 HN5         -0.1690    -2.3030     8.8730 hn         1 2IN       0.389400
     35 H13         -0.3360    -2.2010     6.8380 ha         1 2IN       0.124000
     36 H12          0.7730    -2.0710     4.6430 ha         1 2IN       0.120500
     37 H16          2.7050     1.6100     5.8150 ha         1 2IN       0.120500
     38 H15          1.6200     1.4880     8.0230 ha         1 2IN       0.124000
     39 H111         3.4390     0.4010     3.8000 h1         1 2IN       0.069700
     40 H112         2.7300    -1.1580     3.3570 h1         1 2IN       0.069700
     41 HN3          1.6460     1.5520     2.7220 hn         1 2IN       0.320500
     42 H81         -0.6200     1.5000     1.5660 h1         1 2IN       0.072200
     43 H82          0.6980     1.4830     0.3640 h1         1 2IN       0.072200
     44 HN2         -0.8330    -0.9030     0.0010 hn         1 2IN       0.341500
     45 H5          -2.3170    -1.2900    -1.4520 h1         1 2IN       0.087700
     46 H61         -4.5730    -0.9540    -2.0610 h1         1 2IN       0.034200
     47 H62         -4.2920     0.0240    -0.6130 h1         1 2IN       0.034200
     48 HO3         -5.4820     1.1410    -2.3010 ho         1 2IN       0.452000
     49 HN1         -2.3590     0.6830    -3.6490 hn         1 2IN       0.512000
     50 H11         -1.3730    -1.4250    -5.7350 h1         1 2IN       0.098200
     51 H12A        -1.1890     0.3400    -5.8950 h1         1 2IN       0.098200
     52 H3           1.0170     1.3400    -6.5110 ha         1 2IN       0.119000
     53 H2           3.1860     1.0060    -7.6790 ha         1 2IN       0.115500
     54 H21          4.0390    -1.2990    -8.1020 ha         1 2IN       0.113000
     55 H20          2.7110    -3.2730    -7.3530 ha         1 2IN       0.115500
     56 H19          0.5410    -2.9470    -6.1840 ha         1 2IN       0.119000
@<TRIPOS>BOND
     1     1     3 1   
     2     1    32 1   
     3     1    33 1   
     4     2     3 2   
     5     2    34 1   
     6     3     4 1   
     7     4     5 ar  
     8     4     9 ar  
     9     5     6 ar  
    10     5    35 1   
    11     6     7 ar  
    12     6    36 1   
    13     7     8 ar  
    14     7    10 1   
    15     8     9 ar  
    16     8    37 1   
    17     9    38 1   
    18    10    11 1   
    19    10    39 1   
    20    10    40 1   
    21    11    12 1   
    22    11    41 1   
    23    12    13 2   
    24    12    14 1   
    25    14    15 1   
    26    14    42 1   
    27    14    43 1   
    28    15    16 1   
    29    15    44 1   
    30    16    17 2   
    31    16    18 1   
    32    18    19 1   
    33    18    21 1   
    34    18    45 1   
    35    19    20 1   
    36    19    46 1   
    37    19    47 1   
    38    20    48 1   
    39    21    22 1   
    40    21    49 1   
    41    22    23 2   
    42    22    24 2   
    43    22    25 1   
    44    25    26 1   
    45    25    50 1   
    46    25    51 1   
    47    26    27 ar  
    48    26    31 ar  
    49    27    28 ar  
    50    27    52 1   
    51    28    29 ar  
    52    28    53 1   
    53    29    30 ar  
    54    29    54 1   
    55    30    31 ar  
    56    30    55 1   
    57    31    56 1   
@<TRIPOS>SUBSTRUCTURE
     1 2IN         1 TEMP              0 ****  ****    0 ROOT
