@<TRIPOS>MOLECULE
2IN
   56    57     1     0     0
SMALL
bcc


@<TRIPOS>ATOM
      1 N4           0.0390     1.3780     9.8890 nv         1 2IN      -0.922800
      2 N5          -1.6040    -0.2000     9.6290 n2         1 2IN      -0.841100
      3 C18         -0.5610     0.3840     9.1750 ce         1 2IN       0.659800
      4 C14          0.1180     0.0290     7.8980 ca         1 2IN      -0.189900
      5 C13         -0.6370    -0.3820     6.7990 ca         1 2IN      -0.107000
      6 C12         -0.0210    -0.7280     5.6100 ca         1 2IN      -0.118500
      7 C17          1.3670    -0.6800     5.4870 ca         1 2IN      -0.103300
      8 C16          2.1180    -0.2740     6.5830 ca         1 2IN      -0.118500
      9 C15          1.5030     0.0820     7.7760 ca         1 2IN      -0.107000
     10 C11          2.0410    -1.0670     4.1950 c3         1 2IN       0.143300
     11 N3           1.5850    -0.2840     3.0680 ns         1 2IN      -0.564900
     12 C10          0.7510    -0.7370     2.1240 c          1 2IN       0.659100
     13 O5           0.3010    -1.8730     2.0890 o          1 2IN      -0.614100
     14 C8           0.3860     0.2990     1.0720 c3         1 2IN       0.020000
     15 N2          -0.3650    -0.3290     0.0210 ns         1 2IN      -0.557900
     16 C7          -0.7640     0.3300    -1.0710 c          1 2IN       0.659100
     17 O4          -0.5100     1.5040    -1.2800 o          1 2IN      -0.593100
     18 C5          -1.5910    -0.5090    -2.0520 c3         1 2IN       0.150500
     19 C6          -2.9780    -0.7820    -1.4880 c3         1 2IN       0.140400
     20 O3          -3.5950     0.4550    -1.2360 oh         1 2IN      -0.593800
     21 N1          -1.7310     0.1490    -3.3340 n7         1 2IN      -0.832100
     22 S1          -0.3970     0.3570    -4.2890 s6         1 2IN       1.213900
     23 O2          -0.3420     1.7420    -4.7350 o          1 2IN      -0.600300
     24 O1           0.7530    -0.2340    -3.6190 o          1 2IN      -0.600300
     25 C1          -0.7800    -0.6650    -5.7180 c3         1 2IN      -0.136300
     26 C4           0.3420    -0.5970    -6.7050 ca         1 2IN      -0.083300
     27 C3           0.3510     0.3830    -7.6940 ca         1 2IN      -0.102500
     28 C2           1.4020     0.4610    -8.5960 ca         1 2IN      -0.127500
     29 C21          2.4610    -0.4350    -8.5100 ca         1 2IN      -0.117000
     30 C20          2.4600    -1.4110    -7.5220 ca         1 2IN      -0.127500
     31 C19          1.4080    -1.4890    -6.6220 ca         1 2IN      -0.102500
     32 HN41        -0.4710     1.7230    10.6860 hn         1 2IN       0.414300
     33 HN42         0.5520     2.0840     9.3880 hn         1 2IN       0.414300
     34 HN5         -1.8640    -0.9820     9.0390 hn         1 2IN       0.389400
     35 H13         -1.7170    -0.4160     6.8640 ha         1 2IN       0.142000
     36 H12         -0.6300    -1.0420     4.7710 ha         1 2IN       0.138500
     37 H16          3.1980    -0.2340     6.5100 ha         1 2IN       0.138500
     38 H15          2.1140     0.3850     8.6170 ha         1 2IN       0.142000
     39 H111         3.1210    -0.9450     4.2890 h1         1 2IN       0.069700
     40 H112         1.8580    -2.1190     3.9760 h1         1 2IN       0.069700
     41 HN3          1.8910     0.6750     3.0230 hn         1 2IN       0.320500
     42 H81         -0.1930     1.0940     1.5520 h1         1 2IN       0.072200
     43 H82          1.2960     0.7630     0.6820 h1         1 2IN       0.072200
     44 HN2         -0.5870    -1.3070     0.1440 hn         1 2IN       0.341500
     45 H5          -1.1110    -1.4800    -2.1990 h1         1 2IN       0.087700
     46 H61         -3.5340    -1.3840    -2.2150 h1         1 2IN       0.034200
     47 H62         -2.8790    -1.3850    -0.5780 h1         1 2IN       0.034200
     48 HO3         -4.5040     0.2950    -0.9670 ho         1 2IN       0.413000
     49 HN1         -2.3190     0.9750    -3.3220 hn         1 2IN       0.456800
     50 H11         -0.9430    -1.6750    -5.3400 h1         1 2IN       0.098200
     51 H12A        -1.7200    -0.2920    -6.1250 h1         1 2IN       0.098200
     52 H3          -0.4740     1.0810    -7.7690 ha         1 2IN       0.137000
     53 H2           1.3960     1.2210    -9.3650 ha         1 2IN       0.133500
     54 H21          3.2810    -0.3750    -9.2130 ha         1 2IN       0.131000
     55 H20          3.2810    -2.1130    -7.4520 ha         1 2IN       0.133500
     56 H19          1.4110    -2.2560    -5.8570 ha         1 2IN       0.137000
@<TRIPOS>BOND
     1     1     3 1   
     2     1    32 1   
     3     1    33 1   
     4     2     3 2   
     5     2    34 1   
     6     3     4 1   
     7     4     5 ar  
     8     4     9 ar  
     9     5     6 ar  
    10     5    35 1   
    11     6     7 ar  
    12     6    36 1   
    13     7     8 ar  
    14     7    10 1   
    15     8     9 ar  
    16     8    37 1   
    17     9    38 1   
    18    10    11 1   
    19    10    39 1   
    20    10    40 1   
    21    11    12 1   
    22    11    41 1   
    23    12    13 2   
    24    12    14 1   
    25    14    15 1   
    26    14    42 1   
    27    14    43 1   
    28    15    16 1   
    29    15    44 1   
    30    16    17 2   
    31    16    18 1   
    32    18    19 1   
    33    18    21 1   
    34    18    45 1   
    35    19    20 1   
    36    19    46 1   
    37    19    47 1   
    38    20    48 1   
    39    21    22 1   
    40    21    49 1   
    41    22    23 2   
    42    22    24 2   
    43    22    25 1   
    44    25    26 1   
    45    25    50 1   
    46    25    51 1   
    47    26    27 ar  
    48    26    31 ar  
    49    27    28 ar  
    50    27    52 1   
    51    28    29 ar  
    52    28    53 1   
    53    29    30 ar  
    54    29    54 1   
    55    30    31 ar  
    56    30    55 1   
    57    31    56 1   
@<TRIPOS>SUBSTRUCTURE
     1 2IN         1 TEMP              0 ****  ****    0 ROOT
