@<TRIPOS>MOLECULE
2IO
   38    38     1     0     0
SMALL
abcg2


@<TRIPOS>ATOM
      1 C1         -17.8280   -11.8170    -3.6420 c3         1 2IO      -0.090350
      2 C10        -16.1260   -16.9200    -4.7010 c3         1 2IO      -0.090350
      3 C11        -16.2440   -18.8770    -6.2540 c3         1 2IO      -0.090350
      4 C12        -20.2700   -15.7350    -4.3030 c          1 2IO       0.566500
      5 C2         -18.1180   -13.3070    -3.8060 c3         1 2IO      -0.056200
      6 C3         -18.0670   -13.6890    -5.2820 c3         1 2IO      -0.090350
      7 C4         -19.4520   -13.6300    -3.1280 c3         1 2IO      -0.075900
      8 C5         -19.8370   -15.1070    -2.9940 c6         1 2IO       0.043700
      9 C6         -18.4130   -17.1150    -2.5310 c          1 2IO       0.566500
     10 C7         -19.0290   -17.8310    -3.7160 c6         1 2IO       0.043700
     11 C8         -18.0150   -18.6430    -4.5280 c3         1 2IO      -0.075900
     12 C9         -17.0580   -17.8730    -5.4400 c3         1 2IO      -0.056200
     13 N1         -18.7880   -15.8460    -2.3240 ns         1 2IO      -0.501400
     14 N2         -19.7900   -16.9540    -4.5820 ns         1 2IO      -0.501400
     15 O1         -17.6370   -17.7040    -1.7940 o          1 2IO      -0.558000
     16 H3         -17.8060   -11.5240    -2.5910 hc         1 2IO       0.035867
     17 H2         -16.8640   -11.5550    -4.0810 hc         1 2IO       0.035867
     18 H1         -18.5920   -11.2130    -4.1380 hc         1 2IO       0.035867
     19 H17        -16.6610   -16.1190    -4.1910 hc         1 2IO       0.035867
     20 H16        -15.5230   -17.4480    -3.9600 hc         1 2IO       0.035867
     21 H18        -15.4410   -16.4420    -5.4040 hc         1 2IO       0.035867
     22 H19        -15.5780   -18.3690    -6.9540 hc         1 2IO       0.035867
     23 H20        -15.6270   -19.4980    -5.6010 hc         1 2IO       0.035867
     24 H21        -16.8900   -19.5410    -6.8320 hc         1 2IO       0.035867
     25 H4         -17.3250   -13.8570    -3.2880 hc         1 2IO       0.047200
     26 H6         -18.1370   -14.7650    -5.4420 hc         1 2IO       0.035867
     27 H5         -18.8730   -13.2110    -5.8420 hc         1 2IO       0.035867
     28 H7         -17.1210   -13.3680    -5.7230 hc         1 2IO       0.035867
     29 H9         -19.4280   -13.2200    -2.1130 hc         1 2IO       0.057450
     30 H8         -20.2670   -13.1140    -3.6400 hc         1 2IO       0.057450
     31 H10        -20.7410   -15.1350    -2.3690 h1         1 2IO       0.062700
     32 H12        -19.7150   -18.5590    -3.2620 h1         1 2IO       0.062700
     33 H14        -18.5910   -19.3370    -5.1480 hc         1 2IO       0.057450
     34 H13        -17.4520   -19.2670    -3.8320 hc         1 2IO       0.057450
     35 H15        -17.6540   -17.2840    -6.1460 hc         1 2IO       0.047200
     36 H11        -18.4140   -15.4120    -1.4890 hn         1 2IO       0.321500
     37 H22        -20.1420   -17.3780    -5.4300 hn         1 2IO       0.321500
     38 O2         -21.0490   -15.1480    -5.0370 o          1 2IO      -0.558000
@<TRIPOS>BOND
     1     1     5 1   
     2     1    16 1   
     3     1    17 1   
     4     1    18 1   
     5     2    12 1   
     6     2    19 1   
     7     2    20 1   
     8     2    21 1   
     9     3    12 1   
    10     3    22 1   
    11     3    23 1   
    12     3    24 1   
    13     4     8 1   
    14     4    14 1   
    15     4    38 2   
    16     5     6 1   
    17     5     7 1   
    18     5    25 1   
    19     6    26 1   
    20     6    27 1   
    21     6    28 1   
    22     7     8 1   
    23     7    29 1   
    24     7    30 1   
    25     8    13 1   
    26     8    31 1   
    27     9    10 1   
    28     9    13 1   
    29     9    15 2   
    30    10    11 1   
    31    10    14 1   
    32    10    32 1   
    33    11    12 1   
    34    11    33 1   
    35    11    34 1   
    36    12    35 1   
    37    13    36 1   
    38    14    37 1   
@<TRIPOS>SUBSTRUCTURE
     1 2IO         1 TEMP              0 ****  ****    0 ROOT
