@<TRIPOS>MOLECULE
2IO
   38    38     1     0     0
SMALL
No Charge or Current Charge


@<TRIPOS>ATOM
      1 C1         -17.7150   -11.8510    -3.7460 c3         1 2IO      -0.090350
      2 C10        -16.0750   -16.8950    -4.5770 c3         1 2IO      -0.090350
      3 C11        -16.2030   -18.7120    -6.3410 c3         1 2IO      -0.090350
      4 C12        -20.4140   -15.7720    -4.2430 c          1 2IO       0.566500
      5 C2         -18.1010   -13.3440    -3.8610 c3         1 2IO      -0.056200
      6 C3         -18.0870   -13.7850    -5.3440 c3         1 2IO      -0.090350
      7 C4         -19.4560   -13.6190    -3.1420 c3         1 2IO      -0.075900
      8 C5         -19.8940   -15.1070    -2.9290 c6         1 2IO       0.043700
      9 C6         -18.5030   -17.1820    -2.4320 c          1 2IO       0.566500
     10 C7         -19.0920   -17.8810    -3.6990 c6         1 2IO       0.043700
     11 C8         -18.0010   -18.6380    -4.5280 c3         1 2IO      -0.075900
     12 C9         -17.0230   -17.7960    -5.4030 c3         1 2IO      -0.056200
     13 N1         -18.8430   -15.8680    -2.2110 ns         1 2IO      -0.501400
     14 N2         -19.9110   -17.0090    -4.5750 ns         1 2IO      -0.501400
     15 O1         -17.7360   -17.7460    -1.6660 o          1 2IO      -0.558000
     16 H3         -17.6540   -11.5440    -2.6950 hc         1 2IO       0.035867
     17 H2         -16.7360   -11.6660    -4.2060 hc         1 2IO       0.035867
     18 H1         -18.4550   -11.2160    -4.2480 hc         1 2IO       0.035867
     19 H17        -16.6310   -16.1370    -4.0190 hc         1 2IO       0.035867
     20 H16        -15.4910   -17.4900    -3.8650 hc         1 2IO       0.035867
     21 H18        -15.3750   -16.3660    -5.2340 hc         1 2IO       0.035867
     22 H19        -15.5530   -18.1180    -6.9940 hc         1 2IO       0.035867
     23 H20        -15.5740   -19.4000    -5.7630 hc         1 2IO       0.035867
     24 H21        -16.8650   -19.3070    -6.9810 hc         1 2IO       0.035867
     25 H4         -17.3190   -13.9100    -3.3400 hc         1 2IO       0.047200
     26 H6         -18.2080   -14.8680    -5.4400 hc         1 2IO       0.035867
     27 H5         -18.8910   -13.2950    -5.9050 hc         1 2IO       0.035867
     28 H7         -17.1320   -13.5230    -5.8160 hc         1 2IO       0.035867
     29 H9         -19.4020   -13.1530    -2.1510 hc         1 2IO       0.057450
     30 H8         -20.2510   -13.0740    -3.6680 hc         1 2IO       0.057450
     31 H10        -20.7730   -15.0940    -2.2700 h1         1 2IO       0.062700
     32 H12        -19.7740   -18.6400    -3.2920 h1         1 2IO       0.062700
     33 H14        -18.5270   -19.3300    -5.1980 hc         1 2IO       0.057450
     34 H13        -17.4140   -19.2820    -3.8620 hc         1 2IO       0.057450
     35 H15        -17.6220   -17.1420    -6.0490 hc         1 2IO       0.047200
     36 H11        -18.4100   -15.4380    -1.4010 hn         1 2IO       0.321500
     37 H22        -20.2430   -17.3900    -5.4540 hn         1 2IO       0.321500
     38 O2         -21.2110   -15.2230    -4.9880 o          1 2IO      -0.558000
@<TRIPOS>BOND
     1     1     5 1   
     2     1    16 1   
     3     1    17 1   
     4     1    18 1   
     5     2    12 1   
     6     2    19 1   
     7     2    20 1   
     8     2    21 1   
     9     3    12 1   
    10     3    22 1   
    11     3    23 1   
    12     3    24 1   
    13     4     8 1   
    14     4    14 1   
    15     4    38 2   
    16     5     6 1   
    17     5     7 1   
    18     5    25 1   
    19     6    26 1   
    20     6    27 1   
    21     6    28 1   
    22     7     8 1   
    23     7    29 1   
    24     7    30 1   
    25     8    13 1   
    26     8    31 1   
    27     9    10 1   
    28     9    13 1   
    29     9    15 2   
    30    10    11 1   
    31    10    14 1   
    32    10    32 1   
    33    11    12 1   
    34    11    33 1   
    35    11    34 1   
    36    12    35 1   
    37    13    36 1   
    38    14    37 1   
@<TRIPOS>SUBSTRUCTURE
     1 2IO         1 TEMP              0 ****  ****    0 ROOT
