@<TRIPOS>MOLECULE
2IP
   30    30     1     0     0
SMALL
abcg2


@<TRIPOS>ATOM
      1 C1          38.7660    30.9210    33.1400 c6         1 2IP       0.219800
      2 C2          39.3090    30.2120    34.3850 c6         1 2IP       0.141800
      3 C3          39.3480    31.1240    35.6170 c6         1 2IP       0.141800
      4 C4          38.0010    31.8070    35.8580 c6         1 2IP       0.219800
      5 C5          37.5250    32.5260    34.6020 c6         1 2IP       0.141800
      6 C6          37.4080    31.5490    33.4460 c6         1 2IP       0.141800
      7 O1          39.6870    31.9120    32.7280 os         1 2IP      -0.601400
      8 O2          38.5000    29.0620    34.6570 oh         1 2IP      -0.730250
      9 O3          39.7410    30.3080    36.7120 oh         1 2IP      -0.730250
     10 O4          38.0790    32.7800    36.8960 os         1 2IP      -0.601400
     11 O5          36.2370    33.1110    34.8210 oh         1 2IP      -0.730250
     12 O6          36.8930    32.1780    32.2720 oh         1 2IP      -0.730250
     13 P4          37.6500    32.3560    38.4670 p5         1 2IP       1.304900
     14 O41         36.2420    31.7920    38.3840 o          1 2IP      -0.934833
     15 O42         37.7880    33.6720    39.2050 o          1 2IP      -0.934833
     16 O43         38.7000    31.3020    38.8670 o          1 2IP      -0.934833
     17 P1          40.7150    31.6020    31.4240 p5         1 2IP       1.304900
     18 O11         41.6630    30.5010    31.8900 o          1 2IP      -0.934833
     19 O12         39.8050    31.1760    30.2770 o          1 2IP      -0.934833
     20 O13         41.3750    32.9610    31.2420 o          1 2IP      -0.934833
     21 H1          38.6270    30.1780    32.3490 h1         1 2IP       0.036200
     22 H2          40.3310    29.8970    34.1600 h1         1 2IP       0.051450
     23 H3          40.0940    31.9080    35.4370 h1         1 2IP       0.051450
     24 H4          37.2540    31.0530    36.1240 h1         1 2IP       0.036200
     25 H5          38.2420    33.3120    34.3410 h1         1 2IP       0.051450
     26 H6          36.7300    30.7440    33.7500 h1         1 2IP       0.051450
     27 HO2         38.6760    28.8500    35.5870 ho         1 2IP       0.459750
     28 HO3         39.3660    30.6920    37.5690 ho         1 2IP       0.459750
     29 HO5         36.2910    33.5680    35.6720 ho         1 2IP       0.459750
     30 HO6         36.0920    32.6490    32.5350 ho         1 2IP       0.459750
@<TRIPOS>BOND
     1     1     2 1   
     2     1     6 1   
     3     1     7 1   
     4     1    21 1   
     5     2     3 1   
     6     2     8 1   
     7     2    22 1   
     8     3     4 1   
     9     3     9 1   
    10     3    23 1   
    11     4     5 1   
    12     4    10 1   
    13     4    24 1   
    14     5     6 1   
    15     5    11 1   
    16     5    25 1   
    17     6    12 1   
    18     6    26 1   
    19     7    17 1   
    20     8    27 1   
    21     9    28 1   
    22    10    13 1   
    23    11    29 1   
    24    12    30 1   
    25    13    14 1   
    26    13    15 1   
    27    13    16 1   
    28    17    18 1   
    29    17    19 1   
    30    17    20 1   
@<TRIPOS>SUBSTRUCTURE
     1 2IP         1 TEMP              0 ****  ****    0 ROOT
