@<TRIPOS>MOLECULE
2IP
   30    30     1     0     0
SMALL
No Charge or Current Charge


@<TRIPOS>ATOM
      1 C1          38.5780    30.9450    32.9850 c6         1 2IP       0.219800
      2 C2          39.1800    30.1800    34.2220 c6         1 2IP       0.141800
      3 C3          39.3430    31.1280    35.4580 c6         1 2IP       0.141800
      4 C4          37.9780    31.8390    35.8020 c6         1 2IP       0.219800
      5 C5          37.3950    32.5740    34.5560 c6         1 2IP       0.141800
      6 C6          37.1960    31.5810    33.3750 c6         1 2IP       0.141800
      7 O1          39.4650    31.9550    32.4260 os         1 2IP      -0.601400
      8 O2          38.3580    29.0520    34.5960 oh         1 2IP      -0.730250
      9 O3          39.8800    30.3730    36.5720 oh         1 2IP      -0.730250
     10 O4          38.0690    32.7740    36.9070 os         1 2IP      -0.601400
     11 O5          36.1530    33.2370    34.8860 oh         1 2IP      -0.730250
     12 O6          36.5600    32.2770    32.2790 oh         1 2IP      -0.730250
     13 P4          37.8290    32.2790    38.4170 p5         1 2IP       1.304900
     14 O41         36.4530    31.7350    38.5510 o          1 2IP      -0.934833
     15 O42         37.9950    33.4400    39.3320 o          1 2IP      -0.934833
     16 O43         38.8350    31.2380    38.7460 o          1 2IP      -0.934833
     17 P1          40.8880    31.5710    31.7750 p5         1 2IP       1.304900
     18 O11         41.8760    31.2450    32.8370 o          1 2IP      -0.934833
     19 O12         40.7270    30.4180    30.8480 o          1 2IP      -0.934833
     20 O13         41.3820    32.7450    31.0050 o          1 2IP      -0.934833
     21 H1          38.3870    30.2010    32.1980 h1         1 2IP       0.036200
     22 H2          40.1730    29.8000    33.9510 h1         1 2IP       0.051450
     23 H3          40.0570    31.9170    35.1800 h1         1 2IP       0.051450
     24 H4          37.2580    31.0550    36.0800 h1         1 2IP       0.036200
     25 H5          38.1340    33.3300    34.2480 h1         1 2IP       0.051450
     26 H6          36.5330    30.7730    33.7190 h1         1 2IP       0.051450
     27 HO2         38.6900    28.7990    35.4890 ho         1 2IP       0.459750
     28 HO3         39.4730    30.7630    37.4140 ho         1 2IP       0.459750
     29 HO5         36.2630    33.5070    35.8290 ho         1 2IP       0.459750
     30 HO6         36.0230    32.9700    32.7300 ho         1 2IP       0.459750
@<TRIPOS>BOND
     1     1     2 1   
     2     1     6 1   
     3     1     7 1   
     4     1    21 1   
     5     2     3 1   
     6     2     8 1   
     7     2    22 1   
     8     3     4 1   
     9     3     9 1   
    10     3    23 1   
    11     4     5 1   
    12     4    10 1   
    13     4    24 1   
    14     5     6 1   
    15     5    11 1   
    16     5    25 1   
    17     6    12 1   
    18     6    26 1   
    19     7    17 1   
    20     8    27 1   
    21     9    28 1   
    22    10    13 1   
    23    11    29 1   
    24    12    30 1   
    25    13    14 1   
    26    13    15 1   
    27    13    16 1   
    28    17    18 1   
    29    17    19 1   
    30    17    20 1   
@<TRIPOS>SUBSTRUCTURE
     1 2IP         1 TEMP              0 ****  ****    0 ROOT
