@<TRIPOS>MOLECULE
2IQ
   27    26     1     0     0
SMALL
No Charge or Current Charge


@<TRIPOS>ATOM
      1 O           -4.0390    29.0740    37.9920 o          1 2IQ      -0.741000
      2 C           -4.9730    28.3950    37.5860 c          1 2IQ       0.691000
      3 CA          -4.7990    27.6080    36.2340 c3         1 2IQ      -0.000200
      4 N           -5.7460    27.9860    35.1260 n7         1 2IQ      -0.859400
      5 CG          -5.6460    29.3740    34.6200 c3         1 2IQ       0.165800
      6 CD          -4.3280    29.6160    33.8420 c3         1 2IQ      -0.076400
      7 CE          -4.2580    30.9900    33.1330 c3         1 2IQ      -0.068400
      8 CZ          -4.2490    32.2020    34.0930 c3         1 2IQ      -0.080400
      9 CH          -4.1070    33.5520    33.3570 c3         1 2IQ      -0.074400
     10 CT          -4.1000    34.7630    34.3100 c3         1 2IQ      -0.087100
     11 O1          -6.0460    28.3150    38.1710 o          1 2IQ      -0.741000
     12 H1          -4.9310    26.5440    36.4740 h1         1 2IQ       0.028200
     13 H2          -3.7580    27.7230    35.9050 h1         1 2IQ       0.028200
     14 H3          -6.7000    27.8670    35.4940 hn         1 2IQ       0.415000
     15 H5          -5.7240    30.0910    35.4480 h1         1 2IQ       0.024700
     16 H6          -6.4850    29.5710    33.9380 h1         1 2IQ       0.024700
     17 H7          -4.2160    28.8320    33.0830 hc         1 2IQ       0.037700
     18 H8          -3.4720    29.5250    34.5200 hc         1 2IQ       0.037700
     19 H9          -5.1030    31.0810    32.4390 hc         1 2IQ       0.021200
     20 H10         -3.3470    31.0170    32.5220 hc         1 2IQ       0.021200
     21 H11         -3.4220    32.0920    34.8060 hc         1 2IQ       0.048700
     22 H12         -5.1770    32.2150    34.6780 hc         1 2IQ       0.048700
     23 H13         -4.9330    33.6660    32.6430 hc         1 2IQ       0.027200
     24 H14         -3.1780    33.5530    32.7740 hc         1 2IQ       0.027200
     25 H15         -3.9970    35.6950    33.7430 hc         1 2IQ       0.027367
     26 H16         -5.0340    34.8110    34.8830 hc         1 2IQ       0.027367
     27 H17         -3.2630    34.6960    35.0150 hc         1 2IQ       0.027367
@<TRIPOS>BOND
     1     1     2 1   
     2     2     3 1   
     3     2    11 1   
     4     3     4 1   
     5     3    12 1   
     6     3    13 1   
     7     4     5 1   
     8     4    14 1   
     9     5     6 1   
    10     5    15 1   
    11     5    16 1   
    12     6     7 1   
    13     6    17 1   
    14     6    18 1   
    15     7     8 1   
    16     7    19 1   
    17     7    20 1   
    18     8     9 1   
    19     8    21 1   
    20     8    22 1   
    21     9    10 1   
    22     9    23 1   
    23     9    24 1   
    24    10    25 1   
    25    10    26 1   
    26    10    27 1   
@<TRIPOS>SUBSTRUCTURE
     1 2IQ         1 TEMP              0 ****  ****    0 ROOT
