@<TRIPOS>MOLECULE
2IQ
   27    26     1     0     0
SMALL
bcc


@<TRIPOS>ATOM
      1 O           -4.6610    28.7030    38.6370 o          1 2IQ      -0.846300
      2 C           -5.3810    28.4760    37.6440 c          1 2IQ       0.901600
      3 CA          -4.6550    27.9290    36.3920 c3         1 2IQ      -0.000200
      4 N           -5.4180    27.9350    35.1570 n7         1 2IQ      -0.804200
      5 CG          -5.5370    29.2620    34.5670 c3         1 2IQ       0.165800
      6 CD          -4.3460    29.6080    33.6810 c3         1 2IQ      -0.076400
      7 CE          -4.4350    31.0030    33.0660 c3         1 2IQ      -0.068400
      8 CZ          -4.1480    32.1370    34.0450 c3         1 2IQ      -0.080400
      9 CH          -4.2580    33.5160    33.4060 c3         1 2IQ      -0.074400
     10 CT          -3.9030    34.6440    34.3650 c3         1 2IQ      -0.087100
     11 O1          -6.6200    28.6020    37.5710 o          1 2IQ      -0.846300
     12 H1          -4.3540    26.8980    36.6170 h1         1 2IQ       0.028200
     13 H2          -3.7180    28.4740    36.2480 h1         1 2IQ       0.028200
     14 H3          -6.3510    27.6230    35.3980 hn         1 2IQ       0.359800
     15 H5          -5.6830    30.0460    35.3260 h1         1 2IQ       0.024700
     16 H6          -6.4370    29.2750    33.9460 h1         1 2IQ       0.024700
     17 H7          -4.2850    28.8590    32.8860 hc         1 2IQ       0.037700
     18 H8          -3.4130    29.5250    34.2490 hc         1 2IQ       0.037700
     19 H9          -5.4270    31.1430    32.6230 hc         1 2IQ       0.021200
     20 H10         -3.7260    31.0740    32.2360 hc         1 2IQ       0.021200
     21 H11         -3.1400    32.0070    34.4540 hc         1 2IQ       0.048700
     22 H12         -4.8290    32.0850    34.9000 hc         1 2IQ       0.048700
     23 H13         -5.2750    33.6600    33.0300 hc         1 2IQ       0.027200
     24 H14         -3.6030    33.5610    32.5300 hc         1 2IQ       0.027200
     25 H15         -3.9860    35.6200    33.8860 hc         1 2IQ       0.027367
     26 H16         -4.5640    34.6470    35.2350 hc         1 2IQ       0.027367
     27 H17         -2.8800    34.5420    34.7310 hc         1 2IQ       0.027367
@<TRIPOS>BOND
     1     1     2 1   
     2     2     3 1   
     3     2    11 1   
     4     3     4 1   
     5     3    12 1   
     6     3    13 1   
     7     4     5 1   
     8     4    14 1   
     9     5     6 1   
    10     5    15 1   
    11     5    16 1   
    12     6     7 1   
    13     6    17 1   
    14     6    18 1   
    15     7     8 1   
    16     7    19 1   
    17     7    20 1   
    18     8     9 1   
    19     8    21 1   
    20     8    22 1   
    21     9    10 1   
    22     9    23 1   
    23     9    24 1   
    24    10    25 1   
    25    10    26 1   
    26    10    27 1   
@<TRIPOS>SUBSTRUCTURE
     1 2IQ         1 TEMP              0 ****  ****    0 ROOT
