@<TRIPOS>MOLECULE
2IR
   79    83     1     0     0
SMALL
abcg2


@<TRIPOS>ATOM
      1 C11          7.8860    22.3640     4.6820 ca         1 2IR       0.356300
      2 C13          6.5660    22.0980     6.4970 ca         1 2IR       0.244500
      3 C14          5.2320    22.0430     7.0830 cc         1 2IR      -0.274500
      4 C01          6.2410    26.6180     0.4470 c3         1 2IR      -0.085600
      5 C03          4.7120    26.6290     2.4470 c3         1 2IR      -0.085600
      6 C04          5.5170    24.4490     1.4750 ca         1 2IR      -0.074300
      7 C05          4.8490    23.3850     0.8810 ca         1 2IR      -0.107000
      8 C06          5.2230    22.0720     1.1370 ca         1 2IR      -0.106000
      9 C07          6.2740    21.7660     1.9940 ca         1 2IR      -0.062300
     10 C08          6.6910    20.3510     2.2640 c3         1 2IR      -0.047800
     11 C09          6.9290    22.8440     2.5830 ca         1 2IR       0.110100
     12 C15          4.7440    21.2550     8.1080 cd         1 2IR       0.312500
     13 C16          5.3780    20.1470     8.8270 ca         1 2IR      -0.074500
     14 C17          5.1250    19.9730    10.1860 ca         1 2IR      -0.100500
     15 C18          5.6740    18.9070    10.8830 ca         1 2IR      -0.065500
     16 C19          6.4830    17.9910    10.2230 ca         1 2IR      -0.199300
     17 C20          7.0910    16.8280    10.9400 c3         1 2IR       0.357300
     18 C24          6.7390    18.1510     8.8640 ca         1 2IR      -0.065500
     19 C25          6.1870    19.2150     8.1750 ca         1 2IR      -0.100500
     20 C27          3.1590    22.5550     7.5400 cc         1 2IR       0.435400
     21 C29          4.1460    23.8580     5.6550 c5         1 2IR       0.088300
     22 C30          3.4100    23.2900     4.4480 c5         1 2IR       0.154800
     23 C33         -0.3730    23.1230     4.4200 c3         1 2IR       0.167800
     24 C37          1.9330    24.8380     5.3330 c5         1 2IR       0.167800
     25 C38          3.2910    25.0850     6.0140 c5         1 2IR      -0.104400
     26 C39          7.7020    21.9420     7.2860 ca         1 2IR      -0.240000
     27 C40          8.9180    21.9900     6.6320 ca         1 2IR       0.138900
     28 C42          6.5710    24.1560     2.3380 ca         1 2IR      -0.104000
     29 F21          6.7720    15.6630    10.3570 f          1 2IR      -0.115333
     30 F22          6.7010    16.7440    12.2140 f          1 2IR      -0.115333
     31 F23          8.4310    16.8940    10.9430 f          1 2IR      -0.115333
     32 N12          6.6700    22.3110     5.1850 nb         1 2IR      -0.259000
     33 N26          3.4570    21.5970     8.3790 nd         1 2IR      -0.681000
     34 N28          4.1890    22.8690     6.7300 na         1 2IR      -0.126500
     35 N31          2.0310    23.4830     4.8280 n3         1 2IR      -0.738600
     36 N34         -0.5170    22.4570     5.6990 n3         1 2IR      -0.705600
     37 N41          9.0270    22.2010     5.3270 nb         1 2IR      -0.184000
     38 O10          8.0380    22.6050     3.3750 os         1 2IR      -0.345400
     39 H011         5.9250    27.6300     0.1860 hc         1 2IR       0.036367
     40 H012         7.1350    26.7000     1.0670 hc         1 2IR       0.036367
     41 H013         6.5190    26.1050    -0.4740 hc         1 2IR       0.036367
     42 H021         4.2530    25.8450     0.5190 hc         1 2IR       0.049700
     43 H033         3.8910    26.1280     2.9610 hc         1 2IR       0.036367
     44 H031         5.5430    26.7190     3.1500 hc         1 2IR       0.036367
     45 H032         4.3830    27.6400     2.2000 hc         1 2IR       0.036367
     46 H051         4.0260    23.5800     0.2040 ha         1 2IR       0.114000
     47 H061         4.6870    21.2620     0.6550 ha         1 2IR       0.117000
     48 H081         7.7510    20.1950     2.0590 hc         1 2IR       0.050033
     49 H082         6.5190    20.0700     3.3040 hc         1 2IR       0.050033
     50 H083         6.1260    19.6600     1.6400 hc         1 2IR       0.050033
     51 H171         4.4960    20.6800    10.7100 ha         1 2IR       0.129000
     52 H181         5.4600    18.8060    11.9380 ha         1 2IR       0.128500
     53 H241         7.3560    17.4410     8.3280 ha         1 2IR       0.128500
     54 H251         6.3710    19.3050     7.1120 ha         1 2IR       0.129000
     55 H271         2.2010    23.0470     7.4810 h5         1 2IR       0.082100
     56 H291         5.1670    24.1370     5.4200 h1         1 2IR       0.091700
     57 H301         3.6360    22.2380     4.2670 h1         1 2IR       0.058700
     58 H302         3.7040    23.8520     3.5470 h1         1 2IR       0.058700
     59 H322         1.0570    23.7430     2.9650 h1         1 2IR       0.030700
     60 H321         1.2890    22.0900     3.5050 h1         1 2IR       0.030700
     61 H332        -0.6910    24.1620     4.5480 h1         1 2IR       0.028700
     62 H331        -1.0420    22.6940     3.6530 h1         1 2IR       0.028700
     63 H351        -0.2970    20.6080     6.6310 h1         1 2IR       0.031367
     64 H353        -0.7440    20.4800     4.9240 h1         1 2IR       0.031367
     65 H352         0.9020    20.9430     5.3940 h1         1 2IR       0.031367
     66 H363        -2.0950    23.6870     6.3030 h1         1 2IR       0.031367
     67 H361        -2.6320    22.1590     5.5890 h1         1 2IR       0.031367
     68 H362        -1.9310    22.1870     7.2140 h1         1 2IR       0.031367
     69 H372         1.7760    25.5690     4.5250 h1         1 2IR       0.042200
     70 H371         1.0940    24.9360     6.0250 h1         1 2IR       0.042200
     71 H382         3.7700    25.9760     5.6110 hc         1 2IR       0.060200
     72 H381         3.2100    25.2330     7.0910 hc         1 2IR       0.060200
     73 H391         7.6450    21.8040     8.3550 ha         1 2IR       0.151000
     74 H401         9.8440    21.8680     7.1810 h4         1 2IR       0.033100
     75 H421         7.1270    24.9520     2.8210 ha         1 2IR       0.127000
     76 C32          1.0430    23.0950     3.8580 c3         1 2IR       0.189800
     77 C02          5.1230    25.8780     1.1820 c3         1 2IR      -0.015400
     78 C35         -0.1510    21.0600     5.6490 c3         1 2IR       0.149600
     79 C36         -1.8560    22.6260     6.2180 c3         1 2IR       0.149600
@<TRIPOS>BOND
     1     1    32 ar  
     2     1    37 ar  
     3     1    38 1   
     4     2     3 1   
     5     2    26 ar  
     6     2    32 ar  
     7     3    12 2   
     8     3    34 1   
     9     4    39 1   
    10     4    40 1   
    11     4    41 1   
    12     4    77 1   
    13     5    43 1   
    14     5    44 1   
    15     5    45 1   
    16     5    77 1   
    17     6     7 ar  
    18     6    28 ar  
    19     6    77 1   
    20     7     8 ar  
    21     7    46 1   
    22     8     9 ar  
    23     8    47 1   
    24     9    10 1   
    25     9    11 ar  
    26    10    48 1   
    27    10    49 1   
    28    10    50 1   
    29    11    28 ar  
    30    11    38 1   
    31    12    13 1   
    32    12    33 1   
    33    13    14 ar  
    34    13    19 ar  
    35    14    15 ar  
    36    14    51 1   
    37    15    16 ar  
    38    15    52 1   
    39    16    17 1   
    40    16    18 ar  
    41    17    29 1   
    42    17    30 1   
    43    17    31 1   
    44    18    19 ar  
    45    18    53 1   
    46    19    54 1   
    47    20    33 2   
    48    20    34 1   
    49    20    55 1   
    50    21    22 1   
    51    21    25 1   
    52    21    34 1   
    53    21    56 1   
    54    22    35 1   
    55    22    57 1   
    56    22    58 1   
    57    23    36 1   
    58    23    61 1   
    59    23    62 1   
    60    23    76 1   
    61    24    25 1   
    62    24    35 1   
    63    24    69 1   
    64    24    70 1   
    65    25    71 1   
    66    25    72 1   
    67    26    27 ar  
    68    26    73 1   
    69    27    37 ar  
    70    27    74 1   
    71    28    75 1   
    72    35    76 1   
    73    36    78 1   
    74    36    79 1   
    75    42    77 1   
    76    59    76 1   
    77    60    76 1   
    78    63    78 1   
    79    64    78 1   
    80    65    78 1   
    81    66    79 1   
    82    67    79 1   
    83    68    79 1   
@<TRIPOS>SUBSTRUCTURE
     1 2IR         1 TEMP              0 ****  ****    0 ROOT
