@<TRIPOS>MOLECULE
2IR
   79    83     1     0     0
SMALL
No Charge or Current Charge


@<TRIPOS>ATOM
      1 C11          7.8890    22.1460     4.6200 ca         1 2IR       0.356300
      2 C13          6.6200    22.1500     6.5540 ca         1 2IR       0.244500
      3 C14          5.3030    22.1870     7.1850 cc         1 2IR      -0.274500
      4 C01          6.5790    26.6140     0.7220 c3         1 2IR      -0.085600
      5 C03          4.9430    26.5960     2.6850 c3         1 2IR      -0.085600
      6 C04          5.5890    24.4190     1.5480 ca         1 2IR      -0.074300
      7 C05          4.7190    23.4860     0.9490 ca         1 2IR      -0.107000
      8 C06          4.9250    22.1050     1.1170 ca         1 2IR      -0.106000
      9 C07          6.0100    21.6330     1.8800 ca         1 2IR      -0.062300
     10 C08          6.2230    20.1360     2.0650 c3         1 2IR      -0.047800
     11 C09          6.8800    22.5660     2.4810 ca         1 2IR       0.110100
     12 C15          4.8990    21.3890     8.2380 cd         1 2IR       0.312500
     13 C16          5.5910    20.2570     8.9150 ca         1 2IR      -0.074500
     14 C17          5.1360    19.8200    10.1800 ca         1 2IR      -0.100500
     15 C18          5.7380    18.7330    10.8360 ca         1 2IR      -0.065500
     16 C19          6.8020    18.0320    10.2330 ca         1 2IR      -0.199300
     17 C20          7.4540    16.8370    10.9400 c3         1 2IR       0.357300
     18 C24          7.2230    18.4230     8.9470 ca         1 2IR      -0.065500
     19 C25          6.6200    19.5120     8.2940 ca         1 2IR      -0.100500
     20 C27          3.1730    22.5740     7.6500 cc         1 2IR       0.435400
     21 C29          4.1070    23.8810     5.6750 c5         1 2IR       0.088300
     22 C30          3.4070    23.2900     4.4250 c5         1 2IR       0.154800
     23 C33         -0.5060    23.0730     4.2870 c3         1 2IR       0.167800
     24 C37          1.9010    24.8900     5.1680 c5         1 2IR       0.167800
     25 C38          3.2230    25.1430     5.9570 c5         1 2IR      -0.104400
     26 C39          7.7990    22.2120     7.3130 ca         1 2IR      -0.240000
     27 C40          9.0210    22.2070     6.6240 ca         1 2IR       0.138900
     28 C42          6.6690    23.9450     2.3200 ca         1 2IR      -0.104000
     29 F21          6.8270    15.6810    10.6270 f          1 2IR      -0.115333
     30 F22          7.4180    16.9550    12.2870 f          1 2IR      -0.115333
     31 F23          8.7550    16.6870    10.6000 f          1 2IR      -0.115333
     32 N12          6.6740    22.1320     5.2100 nb         1 2IR      -0.259000
     33 N26          3.5760    21.6680     8.5330 nd         1 2IR      -0.681000
     34 N28          4.1980    22.9200     6.7920 na         1 2IR      -0.126500
     35 N31          1.9920    23.4570     4.8150 n3         1 2IR      -0.738600
     36 N34         -0.8770    22.4370     5.5880 n3         1 2IR      -0.705600
     37 N41          9.0680    22.1710     5.2780 nb         1 2IR      -0.184000
     38 O10          7.9430    22.1360     3.2450 os         1 2IR      -0.345400
     39 H011         6.3560    27.6650     0.5020 hc         1 2IR       0.036367
     40 H012         7.4480    26.5840     1.3890 hc         1 2IR       0.036367
     41 H013         6.8510    26.1210    -0.2200 hc         1 2IR       0.036367
     42 H021         4.5200    26.0620     0.6620 hc         1 2IR       0.049700
     43 H033         4.0190    26.1510     3.0700 hc         1 2IR       0.036367
     44 H031         5.7240    26.4850     3.4470 hc         1 2IR       0.036367
     45 H032         4.7610    27.6670     2.5340 hc         1 2IR       0.036367
     46 H051         3.8760    23.8290     0.3540 ha         1 2IR       0.114000
     47 H061         4.2390    21.4030     0.6490 ha         1 2IR       0.117000
     48 H081         7.2390    19.8440     1.7710 hc         1 2IR       0.050033
     49 H082         6.0810    19.8470     3.1130 hc         1 2IR       0.050033
     50 H083         5.5240    19.5460     1.4600 hc         1 2IR       0.050033
     51 H171         4.3190    20.3390    10.6750 ha         1 2IR       0.129000
     52 H181         5.3680    18.4360    11.8150 ha         1 2IR       0.128500
     53 H241         8.0120    17.8740     8.4360 ha         1 2IR       0.128500
     54 H251         6.9410    19.7360     7.2830 ha         1 2IR       0.129000
     55 H271         2.1800    23.0030     7.5750 h5         1 2IR       0.082100
     56 H291         5.1210    24.2060     5.4120 h1         1 2IR       0.091700
     57 H301         3.6830    22.2410     4.2540 h1         1 2IR       0.058700
     58 H302         3.6490    23.8600     3.5180 h1         1 2IR       0.058700
     59 H322         1.0980    23.4990     2.8930 h1         1 2IR       0.030700
     60 H321         1.1960    21.9010     3.6210 h1         1 2IR       0.030700
     61 H332        -0.7520    24.1430     4.3310 h1         1 2IR       0.028700
     62 H331        -1.1250    22.6460     3.4860 h1         1 2IR       0.028700
     63 H351        -0.8390    20.5780     6.6330 h1         1 2IR       0.031367
     64 H353        -1.1130    20.4360     4.8800 h1         1 2IR       0.031367
     65 H352         0.5100    20.8120     5.5110 h1         1 2IR       0.031367
     66 H363        -2.4540    23.8090     6.0030 h1         1 2IR       0.031367
     67 H361        -2.9790    22.2780     5.2610 h1         1 2IR       0.031367
     68 H362        -2.4930    22.3220     6.9730 h1         1 2IR       0.031367
     69 H372         1.8620    25.5170     4.2660 h1         1 2IR       0.042200
     70 H371         1.0120    25.1130     5.7740 h1         1 2IR       0.042200
     71 H382         3.7090    26.0570     5.6000 hc         1 2IR       0.060200
     72 H381         3.0380    25.2910     7.0260 hc         1 2IR       0.060200
     73 H391         7.7710    22.2600     8.3980 ha         1 2IR       0.151000
     74 H401         9.9720    22.2420     7.1510 h4         1 2IR       0.033100
     75 H421         7.3500    24.6440     2.7970 ha         1 2IR       0.127000
     76 C32          0.9870    22.9560     3.8420 c3         1 2IR       0.189800
     77 C02          5.3550    25.9200     1.3600 c3         1 2IR      -0.015400
     78 C35         -0.5640    20.9910     5.6530 c3         1 2IR       0.149600
     79 C36         -2.2750    22.7250     5.9750 c3         1 2IR       0.149600
@<TRIPOS>BOND
     1     1    32 ar  
     2     1    37 ar  
     3     1    38 1   
     4     2     3 1   
     5     2    26 ar  
     6     2    32 ar  
     7     3    12 2   
     8     3    34 1   
     9     4    39 1   
    10     4    40 1   
    11     4    41 1   
    12     4    77 1   
    13     5    43 1   
    14     5    44 1   
    15     5    45 1   
    16     5    77 1   
    17     6     7 ar  
    18     6    28 ar  
    19     6    77 1   
    20     7     8 ar  
    21     7    46 1   
    22     8     9 ar  
    23     8    47 1   
    24     9    10 1   
    25     9    11 ar  
    26    10    48 1   
    27    10    49 1   
    28    10    50 1   
    29    11    28 ar  
    30    11    38 1   
    31    12    13 1   
    32    12    33 1   
    33    13    14 ar  
    34    13    19 ar  
    35    14    15 ar  
    36    14    51 1   
    37    15    16 ar  
    38    15    52 1   
    39    16    17 1   
    40    16    18 ar  
    41    17    29 1   
    42    17    30 1   
    43    17    31 1   
    44    18    19 ar  
    45    18    53 1   
    46    19    54 1   
    47    20    33 2   
    48    20    34 1   
    49    20    55 1   
    50    21    22 1   
    51    21    25 1   
    52    21    34 1   
    53    21    56 1   
    54    22    35 1   
    55    22    57 1   
    56    22    58 1   
    57    23    36 1   
    58    23    61 1   
    59    23    62 1   
    60    23    76 1   
    61    24    25 1   
    62    24    35 1   
    63    24    69 1   
    64    24    70 1   
    65    25    71 1   
    66    25    72 1   
    67    26    27 ar  
    68    26    73 1   
    69    27    37 ar  
    70    27    74 1   
    71    28    75 1   
    72    35    76 1   
    73    36    78 1   
    74    36    79 1   
    75    42    77 1   
    76    59    76 1   
    77    60    76 1   
    78    63    78 1   
    79    64    78 1   
    80    65    78 1   
    81    66    79 1   
    82    67    79 1   
    83    68    79 1   
@<TRIPOS>SUBSTRUCTURE
     1 2IR         1 TEMP              0 ****  ****    0 ROOT
