@<TRIPOS>MOLECULE
2IT
   15    14     1     0     0
SMALL
abcg2


@<TRIPOS>ATOM
      1 OAC         -3.5350    -0.3450    -0.0010 o          1 2IT      -0.737000
      2 CAJ         -2.4750     0.3090    -0.0010 c          1 2IT       0.579700
      3 OAE         -2.3470     1.5450     0.0000 o          1 2IT      -0.737000
      4 CAI         -1.1710    -0.5220    -0.0030 ce         1 2IT       0.332300
      5 NAA         -1.2000    -1.7890    -0.0020 n2         1 2IT      -0.822100
      6 CAG          0.1280     0.2280    -0.0070 c3         1 2IT      -0.096700
      7 CAF          1.3730    -0.6370    -0.0080 c3         1 2IT      -0.190400
      8 CAH          2.7050     0.1320    -0.0200 c          1 2IT       0.708000
      9 OAB          3.7390    -0.5680     0.0420 o          1 2IT      -0.768000
     10 OAD          2.6670     1.3760    -0.0970 o          1 2IT      -0.768000
     11 H3          -2.1800    -2.0760    -0.0000 hn         1 2IT       0.354400
     12 H6           0.1310     0.8980    -0.8720 hc         1 2IT       0.054200
     13 H7           0.1340     0.9020     0.8540 hc         1 2IT       0.054200
     14 H8           1.3680    -1.3060     0.8580 hc         1 2IT       0.018200
     15 H9           1.3600    -1.3090    -0.8730 hc         1 2IT       0.018200
@<TRIPOS>BOND
     1     1     2 1   
     2     2     3 1   
     3     2     4 1   
     4     4     5 2   
     5     4     6 1   
     6     5    11 1   
     7     6     7 1   
     8     6    12 1   
     9     6    13 1   
    10     7     8 1   
    11     7    14 1   
    12     7    15 1   
    13     8     9 1   
    14     8    10 1   
@<TRIPOS>SUBSTRUCTURE
     1 2IT         1 TEMP              0 ****  ****    0 ROOT
