@<TRIPOS>MOLECULE
2IT
   15    14     1     0     0
SMALL
No Charge or Current Charge


@<TRIPOS>ATOM
      1 OAC         -3.4010    -0.3240    -0.5110 o          1 2IT      -0.737000
      2 CAJ         -2.3000     0.2060    -0.3840 c          1 2IT       0.579700
      3 OAE         -2.0900     1.3410    -0.7990 o          1 2IT      -0.737000
      4 CAI         -1.1630    -0.5940     0.3140 ce         1 2IT       0.332300
      5 NAA         -1.3990    -1.8010     0.7670 n2         1 2IT      -0.822100
      6 CAG          0.2070     0.0580     0.5090 c3         1 2IT      -0.096700
      7 CAF          1.3010    -0.4830    -0.4520 c3         1 2IT      -0.190400
      8 CAH          2.6440     0.2250    -0.1910 c          1 2IT       0.708000
      9 OAB          3.3960    -0.2510     0.6450 o          1 2IT      -0.768000
     10 OAD          2.8790     1.2600    -0.7950 o          1 2IT      -0.768000
     11 H3          -2.3820    -2.0310     0.5440 hn         1 2IT       0.354400
     12 H6           0.1420     1.1440     0.3830 hc         1 2IT       0.054200
     13 H7           0.5380    -0.0930     1.5440 hc         1 2IT       0.054200
     14 H8           1.3860    -1.5550    -0.2380 hc         1 2IT       0.018200
     15 H9           0.9400    -0.2640    -1.4650 hc         1 2IT       0.018200
@<TRIPOS>BOND
     1     1     2 1   
     2     2     3 1   
     3     2     4 1   
     4     4     5 2   
     5     4     6 1   
     6     5    11 1   
     7     6     7 1   
     8     6    12 1   
     9     6    13 1   
    10     7     8 1   
    11     7    14 1   
    12     7    15 1   
    13     8     9 1   
    14     8    10 1   
@<TRIPOS>SUBSTRUCTURE
     1 2IT         1 TEMP              0 ****  ****    0 ROOT
