@<TRIPOS>MOLECULE
2IV
   38    41     1     0     0
SMALL
No Charge or Current Charge


@<TRIPOS>ATOM
      1 C10          6.6720    13.2380    20.5780 c6         1 2IV       0.039700
      2 C11          8.1110    13.6300    20.1350 c3         1 2IV      -0.001200
      3 C12          8.9700    12.4510    19.7530 cc         1 2IV      -0.138400
      4 C13          9.3320    12.0690    18.4640 cd         1 2IV      -0.161100
      5 C02          5.8280    14.4870    20.9640 c          1 2IV       0.562000
      6 C04          3.8180    13.0490    20.4370 c5         1 2IV       0.024700
      7 C05          2.5150    13.5530    19.7570 c5         1 2IV      -0.073400
      8 C06          2.1280    14.7270    20.7000 c5         1 2IV      -0.099400
      9 C07          3.4830    15.4640    20.8880 c5         1 2IV       0.103000
     10 C08          4.6500    12.1030    19.5020 c          1 2IV       0.561000
     11 C15         10.2180    10.5620    19.8560 ca         1 2IV      -0.027200
     12 C16         10.9000     9.4730    20.4150 ca         1 2IV      -0.143000
     13 C17         10.8960     9.3270    21.8190 ca         1 2IV      -0.065000
     14 C18         10.2190    10.2690    22.6270 ca         1 2IV      -0.182000
     15 C19          9.5420    11.3540    22.0360 ca         1 2IV       0.217000
     16 C21          9.5550    11.4710    20.6340 ca         1 2IV      -0.137800
     17 F20          8.9070    12.2580    22.8140 f          1 2IV      -0.178000
     18 N03          4.4440    14.3480    20.7880 n          1 2IV      -0.411800
     19 N09          6.0010    12.3910    19.5550 ns         1 2IV      -0.500900
     20 N14         10.1100    10.8870    18.5170 na         1 2IV      -0.215700
     21 O01          6.3230    15.5500    21.3190 o          1 2IV      -0.553000
     22 O22          4.2130    11.2640    18.7300 o          1 2IV      -0.554000
     23 H1           6.7410    12.6390    21.4960 h1         1 2IV       0.074700
     24 H2           8.0520    14.3220    19.2850 hc         1 2IV       0.075200
     25 H3           8.6100    14.1880    20.9360 hc         1 2IV       0.075200
     26 H4           9.0870    12.5450    17.5180 h4         1 2IV       0.219000
     27 H5           3.5970    12.4860    21.3530 h1         1 2IV       0.071700
     28 H6           2.7030    13.9070    18.7350 hc         1 2IV       0.068200
     29 H7           1.7420    12.7780    19.7010 hc         1 2IV       0.068200
     30 H8           1.3550    15.3770    20.2760 hc         1 2IV       0.056200
     31 H9           1.7500    14.3510    21.6580 hc         1 2IV       0.056200
     32 H10          3.6590    16.1950    20.0870 h1         1 2IV       0.058200
     33 H11          3.5430    15.9820    21.8550 h1         1 2IV       0.058200
     34 H13         11.4230     8.7570    19.7850 ha         1 2IV       0.120000
     35 H14         11.4190     8.4910    22.2790 ha         1 2IV       0.117000
     36 H15         10.2200    10.1610    23.7090 ha         1 2IV       0.132000
     37 H17          6.5890    11.8460    18.9350 hn         1 2IV       0.328500
     38 H18         10.5090    10.3800    17.7330 hn         1 2IV       0.356000
@<TRIPOS>BOND
     1     1     2 1   
     2     1     5 1   
     3     1    19 1   
     4     1    23 1   
     5     2     3 1   
     6     2    24 1   
     7     2    25 1   
     8     3     4 2   
     9     3    16 1   
    10     4    20 1   
    11     4    26 1   
    12     5    18 1   
    13     5    21 2   
    14     6     7 1   
    15     6    10 1   
    16     6    18 1   
    17     6    27 1   
    18     7     8 1   
    19     7    28 1   
    20     7    29 1   
    21     8     9 1   
    22     8    30 1   
    23     8    31 1   
    24     9    18 1   
    25     9    32 1   
    26     9    33 1   
    27    10    19 1   
    28    10    22 2   
    29    11    12 ar  
    30    11    16 ar  
    31    11    20 1   
    32    12    13 ar  
    33    12    34 1   
    34    13    14 ar  
    35    13    35 1   
    36    14    15 ar  
    37    14    36 1   
    38    15    16 ar  
    39    15    17 1   
    40    19    37 1   
    41    20    38 1   
@<TRIPOS>SUBSTRUCTURE
     1 2IV         1 TEMP              0 ****  ****    0 ROOT
