@<TRIPOS>MOLECULE
2IV
   38    41     1     0     0
SMALL
abcg2


@<TRIPOS>ATOM
      1 C10          6.6620    13.2820    20.5100 c6         1 2IV       0.039700
      2 C11          8.0920    13.6560    20.1120 c3         1 2IV      -0.001200
      3 C12          8.9320    12.4630    19.7890 cc         1 2IV      -0.138400
      4 C13          9.2870    12.0490    18.5340 cd         1 2IV      -0.161100
      5 C02          5.8240    14.5210    20.8100 c          1 2IV       0.562000
      6 C04          3.8920    13.0570    20.3440 c5         1 2IV       0.024700
      7 C05          2.5120    13.4750    19.8520 c5         1 2IV      -0.073400
      8 C06          2.1890    14.6590    20.7580 c5         1 2IV      -0.099400
      9 C07          3.5240    15.3860    20.9060 c5         1 2IV       0.103000
     10 C08          4.7250    12.2870    19.3450 c          1 2IV       0.561000
     11 C15         10.1780    10.5370    19.9030 ca         1 2IV      -0.027200
     12 C16         10.8540     9.4480    20.4580 ca         1 2IV      -0.143000
     13 C17         10.8480     9.3330    21.8320 ca         1 2IV      -0.065000
     14 C18         10.1930    10.2700    22.6480 ca         1 2IV      -0.182000
     15 C19          9.5390    11.3280    22.0680 ca         1 2IV       0.217000
     16 C21          9.5000    11.4970    20.6860 ca         1 2IV      -0.137800
     17 F20          8.9210    12.2320    22.8490 f          1 2IV      -0.178000
     18 N03          4.5070    14.3260    20.7090 n          1 2IV      -0.411800
     19 N09          6.0430    12.5090    19.4490 ns         1 2IV      -0.500900
     20 N14         10.0270    10.9050    18.6010 na         1 2IV      -0.215700
     21 O01          6.3220    15.5890    21.1310 o          1 2IV      -0.553000
     22 O22          4.2240    11.5250    18.5360 o          1 2IV      -0.554000
     23 H1           6.6980    12.6890    21.4340 h1         1 2IV       0.074700
     24 H2           8.0570    14.3140    19.2410 hc         1 2IV       0.075200
     25 H3           8.5340    14.2300    20.9250 hc         1 2IV       0.075200
     26 H4           9.0620    12.5060    17.5820 h4         1 2IV       0.219000
     27 H5           3.7880    12.4190    21.2340 h1         1 2IV       0.071700
     28 H6           2.5670    13.7940    18.8090 hc         1 2IV       0.068200
     29 H7           1.7870    12.6680    19.9240 hc         1 2IV       0.068200
     30 H8           1.4140    15.3060    20.3500 hc         1 2IV       0.056200
     31 H9           1.8460    14.3030    21.7320 hc         1 2IV       0.056200
     32 H10          3.6520    16.1600    20.1440 h1         1 2IV       0.058200
     33 H11          3.6420    15.8560    21.8830 h1         1 2IV       0.058200
     34 H13         11.3640     8.7260    19.8340 ha         1 2IV       0.120000
     35 H14         11.3600     8.5030    22.3000 ha         1 2IV       0.117000
     36 H15         10.2060    10.1630    23.7240 ha         1 2IV       0.132000
     37 H17          6.6560    11.9470    18.8730 hn         1 2IV       0.328500
     38 H18         10.4070    10.4150    17.8080 hn         1 2IV       0.356000
@<TRIPOS>BOND
     1     1     2 1   
     2     1     5 1   
     3     1    19 1   
     4     1    23 1   
     5     2     3 1   
     6     2    24 1   
     7     2    25 1   
     8     3     4 2   
     9     3    16 1   
    10     4    20 1   
    11     4    26 1   
    12     5    18 1   
    13     5    21 2   
    14     6     7 1   
    15     6    10 1   
    16     6    18 1   
    17     6    27 1   
    18     7     8 1   
    19     7    28 1   
    20     7    29 1   
    21     8     9 1   
    22     8    30 1   
    23     8    31 1   
    24     9    18 1   
    25     9    32 1   
    26     9    33 1   
    27    10    19 1   
    28    10    22 2   
    29    11    12 ar  
    30    11    16 ar  
    31    11    20 1   
    32    12    13 ar  
    33    12    34 1   
    34    13    14 ar  
    35    13    35 1   
    36    14    15 ar  
    37    14    36 1   
    38    15    16 ar  
    39    15    17 1   
    40    19    37 1   
    41    20    38 1   
@<TRIPOS>SUBSTRUCTURE
     1 2IV         1 TEMP              0 ****  ****    0 ROOT
