@<TRIPOS>MOLECULE
2IW
   53    58     1     0     0
SMALL
bcc


@<TRIPOS>ATOM
      1 C1          -5.8010    -0.5820    -1.0030 c5         1 2IW      -0.160700
      2 N1          -3.5370    -0.3210    -0.4780 n          1 2IW      -0.450600
      3 O1          -4.3580     1.0080    -2.1540 o          1 2IW      -0.560000
      4 C2          -6.9240     0.3110    -0.3870 c5         1 2IW      -0.025000
      5 N2           4.2180    -1.1980     0.4890 nb         1 2IW      -0.694000
      6 O2          -3.2830    -1.8110     1.2440 o          1 2IW      -0.560000
      7 C3          -5.4390    -1.5320     0.1450 c5         1 2IW      -0.160700
      8 N3           2.7600     0.8520    -0.2450 ns         1 2IW      -0.459100
      9 O3           1.9440     2.9110    -0.7620 o          1 2IW      -0.583100
     10 C4          -4.5300     0.1520    -1.3250 c          1 2IW       0.726000
     11 C5          -3.9800    -1.2920     0.4110 c          1 2IW       0.726000
     12 C6          -6.3910    -1.0810     1.2970 c5         1 2IW      -0.025000
     13 C7          -6.2750     1.1370     0.7020 c2         1 2IW      -0.178200
     14 C8          -7.6390    -0.7530     0.4620 c5         1 2IW      -0.082400
     15 C9          -5.9590     0.3110     1.7010 c2         1 2IW      -0.178200
     16 C10          4.1330     1.0590    -0.2370 ca         1 2IW       0.032300
     17 C11          1.7660     1.7300    -0.5200 c          1 2IW       0.689700
     18 C12          6.3000    -2.2800     0.9340 ca         1 2IW      -0.252300
     19 C13          7.0270    -1.1640     0.6100 ca         1 2IW      -0.022300
     20 C14          6.3120    -0.0020     0.2040 ca         1 2IW      -0.114300
     21 C15          4.9020    -0.0800     0.1640 ca         1 2IW       0.360600
     22 C16          4.8960    -2.2500     0.8590 ca         1 2IW       0.423200
     23 C17          6.9440     1.2090    -0.1540 ca         1 2IW      -0.149000
     24 C18          6.1860     2.2820    -0.5350 ca         1 2IW      -0.091000
     25 C19          4.7810     2.2220    -0.5810 ca         1 2IW      -0.162000
     26 C20          8.5210    -1.1620     0.6820 c3         1 2IW      -0.054800
     27 C21         -0.6730     1.9860    -0.1750 ca         1 2IW      -0.081000
     28 C22         -1.9690     1.5010    -0.1530 ca         1 2IW      -0.124000
     29 C23         -2.2120     0.1750    -0.4830 ca         1 2IW       0.070600
     30 C24         -1.1650    -0.6670    -0.8260 ca         1 2IW      -0.124000
     31 C25          0.1330    -0.1830    -0.8230 ca         1 2IW      -0.081000
     32 C26          0.3910     1.1460    -0.4950 ca         1 2IW      -0.150600
     33 H1          -6.1620    -1.0960    -1.8950 hc         1 2IW       0.096200
     34 H2          -7.5110     0.8510    -1.1250 hc         1 2IW       0.090200
     35 H3          -5.5980    -2.5840    -0.0970 hc         1 2IW       0.096200
     36 HN3          2.5130    -0.0830     0.0580 hn         1 2IW       0.354500
     37 H6          -6.4910    -1.8120     2.0950 hc         1 2IW       0.090200
     38 H7          -6.0330     2.1880     0.6220 ha         1 2IW       0.155500
     39 H8          -8.4530    -0.3400     1.0590 hc         1 2IW       0.061200
     40 H8A         -8.0090    -1.5990    -0.1210 hc         1 2IW       0.061200
     41 H9          -5.4090     0.5540     2.6000 ha         1 2IW       0.155500
     42 H12          6.7920    -3.1890     1.2520 ha         1 2IW       0.141000
     43 H16          4.3270    -3.1360     1.1170 h4         1 2IW       0.019100
     44 H17          8.0220     1.2900    -0.1300 ha         1 2IW       0.135000
     45 H18          6.6690     3.2100    -0.8120 ha         1 2IW       0.134000
     46 H19          4.2300     3.0960    -0.8870 ha         1 2IW       0.170000
     47 H20          8.9630    -0.9310    -0.2890 hc         1 2IW       0.049700
     48 H20A         8.8810    -0.4090     1.3840 hc         1 2IW       0.049700
     49 H20B         8.8980    -2.1300     1.0040 hc         1 2IW       0.049700
     50 H21         -0.4900     3.0230     0.0720 ha         1 2IW       0.148500
     51 H22         -2.7860     2.1540     0.1260 ha         1 2IW       0.145500
     52 H24         -1.3590    -1.6930    -1.1090 ha         1 2IW       0.145500
     53 H25          0.9310    -0.8530    -1.1180 ha         1 2IW       0.148500
@<TRIPOS>BOND
     1     1     4 1   
     2     1     7 1   
     3     1    10 1   
     4     1    33 1   
     5     2    10 1   
     6     2    11 1   
     7     2    29 1   
     8     3    10 2   
     9     4    13 1   
    10     4    14 1   
    11     4    34 1   
    12     5    21 ar  
    13     5    22 ar  
    14     6    11 2   
    15     7    11 1   
    16     7    12 1   
    17     7    35 1   
    18     8    16 1   
    19     8    17 1   
    20     8    36 1   
    21     9    17 2   
    22    12    14 1   
    23    12    15 1   
    24    12    37 1   
    25    13    15 2   
    26    13    38 1   
    27    14    39 1   
    28    14    40 1   
    29    15    41 1   
    30    16    21 ar  
    31    16    25 ar  
    32    17    32 1   
    33    18    19 ar  
    34    18    22 ar  
    35    18    42 1   
    36    19    20 ar  
    37    19    26 1   
    38    20    21 ar  
    39    20    23 ar  
    40    22    43 1   
    41    23    24 ar  
    42    23    44 1   
    43    24    25 ar  
    44    24    45 1   
    45    25    46 1   
    46    26    47 1   
    47    26    48 1   
    48    26    49 1   
    49    27    28 ar  
    50    27    32 ar  
    51    27    50 1   
    52    28    29 ar  
    53    28    51 1   
    54    29    30 ar  
    55    30    31 ar  
    56    30    52 1   
    57    31    32 ar  
    58    31    53 1   
@<TRIPOS>SUBSTRUCTURE
     1 2IW         1 TEMP              0 ****  ****    0 ROOT
