@<TRIPOS>MOLECULE
2IW
   53    58     1     0     0
SMALL
No Charge or Current Charge


@<TRIPOS>ATOM
      1 C1          -5.8300    -0.7960    -1.0300 c5         1 2IW      -0.160700
      2 N1          -3.6250    -0.3610    -0.3230 n          1 2IW      -0.224000
      3 O1          -4.2300     0.5210    -2.3980 o          1 2IW      -0.484500
      4 C2          -6.9610     0.2110    -0.6040 c5         1 2IW      -0.025000
      5 N2           4.3500    -1.3110     0.2090 nb         1 2IW      -0.694000
      6 O2          -3.4140    -1.7130     1.5750 o          1 2IW      -0.484500
      7 C3          -5.5440    -1.5760     0.3060 c5         1 2IW      -0.160700
      8 N3           2.8000     0.9220    -0.1490 ns         1 2IW      -0.133000
      9 O3           1.9250     3.0290    -0.4590 o          1 2IW      -0.583100
     10 C4          -4.5180    -0.0650    -1.3630 c          1 2IW       0.583500
     11 C5          -4.0870    -1.2370     0.6690 c          1 2IW       0.583500
     12 C6          -6.5550    -0.9140     1.3120 c5         1 2IW      -0.025000
     13 C7          -6.3880     1.1990     0.3990 c2         1 2IW      -0.228200
     14 C8          -7.7570    -0.7190     0.3490 c5         1 2IW      -0.082400
     15 C9          -6.1500     0.5350     1.5310 c2         1 2IW      -0.228200
     16 C10          4.2180     1.0660    -0.0930 ca         1 2IW       0.005000
     17 C11          1.7570     1.8220    -0.3170 c          1 2IW       0.622700
     18 C12          6.4830    -2.4170     0.4580 ca         1 2IW      -0.169000
     19 C13          7.1710    -1.1990     0.3430 ca         1 2IW      -0.022300
     20 C14          6.4070    -0.0190     0.1570 ca         1 2IW      -0.049000
     21 C15          4.9860    -0.1150     0.0940 ca         1 2IW       0.230000
     22 C16          5.0850    -2.4300     0.3870 ca         1 2IW       0.357900
     23 C17          7.0320     1.2420     0.0330 ca         1 2IW      -0.131000
     24 C18          6.2640     2.3980    -0.1510 ca         1 2IW      -0.073000
     25 C19          4.8670     2.3150    -0.2140 ca         1 2IW      -0.144000
     26 C20          8.6960    -1.1920     0.4220 c3         1 2IW      -0.054800
     27 C21         -0.7600     2.0660    -0.4780 ca         1 2IW      -0.063000
     28 C22         -2.0640     1.5430    -0.4810 ca         1 2IW      -0.106000
     29 C23         -2.2830     0.1640    -0.3170 ca         1 2IW      -0.022000
     30 C24         -1.1730    -0.6870    -0.1560 ca         1 2IW      -0.106000
     31 C25          0.1340    -0.1690    -0.1540 ca         1 2IW      -0.063000
     32 C26          0.3610     1.2210    -0.3140 ca         1 2IW      -0.150600
     33 H1          -6.1390    -1.4200    -1.8770 hc         1 2IW       0.096200
     34 H2          -7.5420     0.6580    -1.4210 hc         1 2IW       0.090200
     35 H3          -5.6750    -2.6630     0.2470 hc         1 2IW       0.096200
     36 HN3          2.5050    -0.0390    -0.0440 hn         1 2IW       0.188000
     37 H6          -6.7700    -1.4820     2.2260 hc         1 2IW       0.090200
     38 H7          -6.2130     2.2660     0.2380 ha         1 2IW       0.205500
     39 H8          -8.6070    -0.2160     0.8250 hc         1 2IW       0.061200
     40 H8A         -8.1200    -1.6450    -0.1170 hc         1 2IW       0.061200
     41 H9          -5.7460     0.9680     2.4510 ha         1 2IW       0.205500
     42 H12          7.0170    -3.3520     0.6020 ha         1 2IW       0.123000
     43 H16          4.5330    -3.3660     0.4740 h4         1 2IW       0.019100
     44 H17          8.1130     1.3430     0.0770 ha         1 2IW       0.117000
     45 H18          6.7540     3.3650    -0.2450 ha         1 2IW       0.116000
     46 H19          4.3090     3.2350    -0.3570 ha         1 2IW       0.152000
     47 H20          9.1370    -0.7950    -0.5000 hc         1 2IW       0.049700
     48 H20A         9.0450    -0.5770     1.2600 hc         1 2IW       0.049700
     49 H20B         9.1000    -2.2000     0.5680 hc         1 2IW       0.049700
     50 H21         -0.6260     3.1390    -0.6040 ha         1 2IW       0.130500
     51 H22         -2.9070     2.2200    -0.6030 ha         1 2IW       0.127500
     52 H24         -1.3160    -1.7590    -0.0430 ha         1 2IW       0.127500
     53 H25          0.9570    -0.8700    -0.0280 ha         1 2IW       0.130500
@<TRIPOS>BOND
     1     1     4 1   
     2     1     7 1   
     3     1    10 1   
     4     1    33 1   
     5     2    10 1   
     6     2    11 1   
     7     2    29 1   
     8     3    10 2   
     9     4    13 1   
    10     4    14 1   
    11     4    34 1   
    12     5    21 ar  
    13     5    22 ar  
    14     6    11 2   
    15     7    11 1   
    16     7    12 1   
    17     7    35 1   
    18     8    16 1   
    19     8    17 1   
    20     8    36 1   
    21     9    17 2   
    22    12    14 1   
    23    12    15 1   
    24    12    37 1   
    25    13    15 2   
    26    13    38 1   
    27    14    39 1   
    28    14    40 1   
    29    15    41 1   
    30    16    21 ar  
    31    16    25 ar  
    32    17    32 1   
    33    18    19 ar  
    34    18    22 ar  
    35    18    42 1   
    36    19    20 ar  
    37    19    26 1   
    38    20    21 ar  
    39    20    23 ar  
    40    22    43 1   
    41    23    24 ar  
    42    23    44 1   
    43    24    25 ar  
    44    24    45 1   
    45    25    46 1   
    46    26    47 1   
    47    26    48 1   
    48    26    49 1   
    49    27    28 ar  
    50    27    32 ar  
    51    27    50 1   
    52    28    29 ar  
    53    28    51 1   
    54    29    30 ar  
    55    30    31 ar  
    56    30    52 1   
    57    31    32 ar  
    58    31    53 1   
@<TRIPOS>SUBSTRUCTURE
     1 2IW         1 TEMP              0 ****  ****    0 ROOT
