@<TRIPOS>MOLECULE
2IX
   82    86     1     0     0
SMALL
bcc


@<TRIPOS>ATOM
      1 C10        -17.1050     8.3400    26.8770 cp         1 2IX      -0.442100
      2 N12        -18.9450     9.4280    27.9570 nb         1 2IX      -0.863000
      3 C13        -19.3620    10.3800    28.8090 ca         1 2IX       0.977900
      4 C15        -21.2480    11.4500    29.9560 c6         1 2IX       0.199800
      5 C21        -27.0190     8.6490    31.8530 c3         1 2IX       0.089300
      6 C22        -27.1230    10.1320    29.8790 c          1 2IX       0.679100
      7 C24        -29.5310     9.4910    29.6420 c6         1 2IX      -0.087900
      8 C28        -32.3900    12.8600    28.1160 ce         1 2IX      -0.220200
      9 C02        -16.0140     6.6130    25.1210 ca         1 2IX       0.932900
     10 C04        -17.7640     7.1810    26.4560 ca         1 2IX       0.464600
     11 C05        -19.1380     6.7760    26.9460 c3         1 2IX       0.382600
     12 C09        -15.8240     8.5020    26.3370 ca         1 2IX       0.525200
     13 C11        -17.6340     9.3570    27.7980 cp         1 2IX       0.832500
     14 C16        -21.9060    10.7100    31.1120 c6         1 2IX       0.072000
     15 C18        -24.1890     9.8770    30.8990 c          1 2IX       0.655100
     16 C19        -25.1410     8.8620    30.2610 c3         1 2IX       0.017000
     17 C23        -28.5460    10.4930    30.2620 c6         1 2IX      -0.134700
     18 C25        -30.9690     9.8680    29.9740 c6         1 2IX       0.098000
     19 C29        -31.4610    13.4540    27.3780 c2         1 2IX      -0.179000
     20 C31        -30.3600    12.2080    30.1500 c6         1 2IX       0.098000
     21 C32        -28.9070    11.9080    29.8150 c6         1 2IX      -0.087900
     22 C35        -22.3090     8.8110    29.6620 c6         1 2IX       0.072000
     23 C36        -21.6600     9.5580    28.5020 c6         1 2IX       0.199800
     24 C38        -17.2520    11.0750    29.1940 ca         1 2IX       0.981900
     25 C40        -16.8190    12.9300    30.7460 c6         1 2IX       0.189800
     26 C41        -16.2500    14.2740    30.3240 c6         1 2IX       0.110900
     27 C43        -14.4630    13.2550    29.2310 c6         1 2IX       0.110900
     28 C44        -14.9590    11.8680    29.6070 c6         1 2IX       0.189800
     29 F06        -19.2430     5.4250    26.9390 f          1 2IX      -0.233300
     30 F07        -20.0620     7.2440    26.0590 f          1 2IX      -0.233300
     31 N01        -15.4920     5.7690    24.2310 nv         1 2IX      -0.952500
     32 N03        -17.2310     6.3360    25.5990 nb         1 2IX      -0.765000
     33 N08        -15.2750     7.6760    25.4780 nb         1 2IX      -0.775000
     34 N14        -20.6880    10.5050    29.0100 nh         1 2IX      -0.766300
     35 N17        -22.8770     9.7550    30.6070 n          1 2IX      -0.480800
     36 N20        -26.5120     9.1510    30.5890 n          1 2IX      -0.454800
     37 N26        -31.2440    11.2280    29.5430 n          1 2IX      -0.477800
     38 N37        -18.5520    11.2200    29.4440 nb         1 2IX      -0.888000
     39 N39        -16.3950    11.9100    29.8060 nh         1 2IX      -0.772300
     40 N45        -16.7410    10.1390    28.3800 nb         1 2IX      -0.856000
     41 O30        -33.0730    10.6440    28.3420 o          1 2IX      -0.603100
     42 O33        -26.5700    10.6680    28.9290 o          1 2IX      -0.598100
     43 O34        -24.6220    10.7340    31.6530 o          1 2IX      -0.599100
     44 O42        -14.8480    14.2220    30.1820 os         1 2IX      -0.398600
     45 H151       -20.4690    12.1080    30.3270 h1         1 2IX       0.078700
     46 H152       -21.9950    12.0620    29.4410 h1         1 2IX       0.078700
     47 H212       -28.0640     8.3560    31.7810 h1         1 2IX       0.043033
     48 H213       -26.4600     7.7580    32.1260 h1         1 2IX       0.043033
     49 H211       -26.9130     9.3740    32.6620 h1         1 2IX       0.043033
     50 H242       -29.4010     9.4760    28.5560 hc         1 2IX       0.061700
     51 H241       -29.3450     8.4770    30.0000 hc         1 2IX       0.061700
     52 H281       -33.3780    13.2990    28.2080 ha         1 2IX       0.147000
     53 H051       -19.3810     7.1390    27.9400 h2         1 2IX       0.084700
     54 H091       -15.2330     9.3630    26.6270 h4         1 2IX       0.043100
     55 H161       -22.3960    11.4140    31.7780 h1         1 2IX       0.063700
     56 H162       -21.1440    10.1740    31.6880 h1         1 2IX       0.063700
     57 H192       -24.8970     7.8580    30.6140 h1         1 2IX       0.076700
     58 H191       -25.0210     8.8520    29.1780 h1         1 2IX       0.076700
     59 H231       -28.6600    10.4510    31.3500 hc         1 2IX       0.061700
     60 H252       -31.6630     9.1850    29.4930 h1         1 2IX       0.055200
     61 H251       -31.1290     9.7950    31.0550 h1         1 2IX       0.055200
     62 H292       -31.6610    14.3910    26.8760 ha         1 2IX       0.120000
     63 H291       -30.4760    13.0270    27.2330 ha         1 2IX       0.120000
     64 H311       -30.6310    13.2100    29.8320 h1         1 2IX       0.055200
     65 H312       -30.5020    12.1650    31.2360 h1         1 2IX       0.055200
     66 H321       -28.2700    12.6410    30.3150 hc         1 2IX       0.061700
     67 H322       -28.7520    12.0200    28.7400 hc         1 2IX       0.061700
     68 H352       -23.0620     8.1290    29.2760 h1         1 2IX       0.063700
     69 H351       -21.5560     8.2040    30.1740 h1         1 2IX       0.063700
     70 H362       -21.1850     8.8610    27.8200 h1         1 2IX       0.078700
     71 H361       -22.4290    10.1040    27.9460 h1         1 2IX       0.078700
     72 H401       -17.9030    12.9780    30.7820 h1         1 2IX       0.071200
     73 H402       -16.4590    12.6680    31.7470 h1         1 2IX       0.071200
     74 H411       -16.4750    15.0260    31.0800 h1         1 2IX       0.055950
     75 H412       -16.7230    14.5850    29.3820 h1         1 2IX       0.055950
     76 H431       -13.3730    13.2580    29.1840 h1         1 2IX       0.055950
     77 H432       -14.8480    13.5170    28.2350 h1         1 2IX       0.055950
     78 H441       -14.7100    11.1580    28.8240 h1         1 2IX       0.071200
     79 H442       -14.4750    11.5360    30.5320 h1         1 2IX       0.071200
     80 H012       -14.5790     5.9360    23.8440 hn         1 2IX       0.456300
     81 H011       -16.0040     4.9580    23.9320 hn         1 2IX       0.456300
     82 C27        -32.2560    11.4890    28.6920 c          1 2IX       0.674300
@<TRIPOS>BOND
     1     1    10 ar  
     2     1    12 ar  
     3     1    13 1   
     4     2     3 ar  
     5     2    13 ar  
     6     3    34 1   
     7     3    38 ar  
     8     4    14 1   
     9     4    34 1   
    10     4    45 1   
    11     4    46 1   
    12     5    36 1   
    13     5    47 1   
    14     5    48 1   
    15     5    49 1   
    16     6    17 1   
    17     6    36 1   
    18     6    42 2   
    19     7    17 1   
    20     7    18 1   
    21     7    50 1   
    22     7    51 1   
    23     8    19 2   
    24     8    52 1   
    25     8    82 1   
    26     9    31 1   
    27     9    32 ar  
    28     9    33 ar  
    29    10    11 1   
    30    10    32 ar  
    31    11    29 1   
    32    11    30 1   
    33    11    53 1   
    34    12    33 ar  
    35    12    54 1   
    36    13    40 ar  
    37    14    35 1   
    38    14    55 1   
    39    14    56 1   
    40    15    16 1   
    41    15    35 1   
    42    15    43 2   
    43    16    36 1   
    44    16    57 1   
    45    16    58 1   
    46    17    21 1   
    47    17    59 1   
    48    18    37 1   
    49    18    60 1   
    50    18    61 1   
    51    19    62 1   
    52    19    63 1   
    53    20    21 1   
    54    20    37 1   
    55    20    64 1   
    56    20    65 1   
    57    21    66 1   
    58    21    67 1   
    59    22    23 1   
    60    22    35 1   
    61    22    68 1   
    62    22    69 1   
    63    23    34 1   
    64    23    70 1   
    65    23    71 1   
    66    24    38 ar  
    67    24    39 1   
    68    24    40 ar  
    69    25    26 1   
    70    25    39 1   
    71    25    72 1   
    72    25    73 1   
    73    26    44 1   
    74    26    74 1   
    75    26    75 1   
    76    27    28 1   
    77    27    44 1   
    78    27    76 1   
    79    27    77 1   
    80    28    39 1   
    81    28    78 1   
    82    28    79 1   
    83    31    80 1   
    84    31    81 1   
    85    37    82 1   
    86    41    82 2   
@<TRIPOS>SUBSTRUCTURE
     1 2IX         1 TEMP              0 ****  ****    0 ROOT
