@<TRIPOS>MOLECULE
2IX
   82    86     1     0     0
SMALL
No Charge or Current Charge


@<TRIPOS>ATOM
      1 C10        -16.4620     7.9900    27.0810 cp         1 2IX      -0.311500
      2 N12        -18.3500     9.2570    27.9930 nb         1 2IX      -0.337000
      3 C13        -18.7930    10.3260    28.6780 ca         1 2IX       0.451900
      4 C15        -20.8000    11.7140    29.4050 c6         1 2IX       0.199800
      5 C21        -27.1600     8.5970    30.9660 c3         1 2IX       0.089300
      6 C22        -27.6930    10.5240    29.3900 c          1 2IX       0.612100
      7 C24        -30.0950     9.6410    29.0860 c6         1 2IX      -0.087900
      8 C28        -34.1140    12.5620    29.6810 ce         1 2IX      -0.270200
      9 C02        -15.3710     6.0150    25.6030 ca         1 2IX       0.406900
     10 C04        -17.0500     6.6850    27.0210 ca         1 2IX       0.136300
     11 C05        -18.3030     6.2600    27.8020 c3         1 2IX       0.140000
     12 C09        -15.2670     8.1630    26.3350 ca         1 2IX       0.196900
     13 C11        -17.0190     9.1430    27.8580 cp         1 2IX       0.306500
     14 C16        -22.1000    11.4290    30.2040 c6         1 2IX       0.072000
     15 C18        -24.4110    10.4550    30.0390 c          1 2IX       0.588100
     16 C19        -25.4000     9.4710    29.3610 c3         1 2IX       0.017000
     17 C23        -29.1640    10.5740    29.8950 c6         1 2IX      -0.134700
     18 C25        -31.5430     9.6640    29.6340 c6         1 2IX       0.098000
     19 C29        -33.5270    13.6750    29.1690 c2         1 2IX      -0.279000
     20 C31        -31.2010    11.9560    30.5540 c6         1 2IX       0.098000
     21 C32        -29.7580    12.0000    30.0020 c6         1 2IX      -0.087900
     22 C35        -22.4810     9.3810    28.7900 c6         1 2IX       0.072000
     23 C36        -21.1700     9.7010    28.0210 c6         1 2IX       0.199800
     24 C38        -16.6760    11.0690    29.0350 ca         1 2IX       0.455900
     25 C40        -16.2710    13.0700    30.5610 c6         1 2IX       0.189800
     26 C41        -15.3190    14.2980    30.6690 c6         1 2IX       0.134100
     27 C43        -13.4560    13.0620    29.8010 c6         1 2IX       0.134100
     28 C44        -14.3020    11.7650    29.6440 c6         1 2IX       0.189800
     29 F06        -18.2470     4.9700    28.2150 f          1 2IX      -0.112000
     30 F07        -19.4220     6.3790    27.0490 f          1 2IX      -0.112000
     31 N01        -14.8290     5.0240    24.8530 nv         1 2IX      -1.062900
     32 N03        -16.4920     5.7100    26.2670 nb         1 2IX      -0.239000
     33 N08        -14.7220     7.1820    25.5940 nb         1 2IX      -0.249000
     34 N14        -20.1940    10.4630    28.8580 nh         1 2IX      -0.766300
     35 N17        -23.0910    10.5320    29.5310 n          1 2IX      -0.413800
     36 N20        -26.8050     9.5240    29.8660 n          1 2IX      -0.387800
     37 N26        -32.1010    11.0410    29.7850 n          1 2IX      -0.410800
     38 N37        -17.9930    11.2580    29.2210 nb         1 2IX      -0.362000
     39 N39        -15.7860    12.0310    29.5800 nh         1 2IX      -0.772300
     40 N45        -16.1470    10.0330    28.3610 nb         1 2IX      -0.330000
     41 O30        -34.2340    10.2370    30.0350 o          1 2IX      -0.603100
     42 O33        -27.3240    11.3080    28.5230 o          1 2IX      -0.598100
     43 O34        -24.7650    11.1810    30.9630 o          1 2IX      -0.599100
     44 O42        -13.9530    13.8780    30.8840 os         1 2IX      -0.445000
     45 H151       -20.1130    12.2450    30.0800 h1         1 2IX       0.078700
     46 H152       -21.0360    12.4050    28.5820 h1         1 2IX       0.078700
     47 H212       -28.0620     8.0290    30.7040 h1         1 2IX       0.043033
     48 H213       -26.3450     7.8870    31.1520 h1         1 2IX       0.043033
     49 H211       -27.3410     9.1660    31.8870 h1         1 2IX       0.043033
     50 H242       -30.1050     9.9590    28.0340 hc         1 2IX       0.061700
     51 H241       -29.7150     8.6100    29.0930 hc         1 2IX       0.061700
     52 H281       -35.1670    12.5970    29.9590 ha         1 2IX       0.197000
     53 H051       -18.4190     6.8800    28.6960 h2         1 2IX       0.084700
     54 H091       -14.7440     9.1190    26.3140 h4         1 2IX       0.043100
     55 H161       -22.5740    12.3930    30.4380 h1         1 2IX       0.063700
     56 H162       -21.8200    10.9700    31.1630 h1         1 2IX       0.063700
     57 H192       -25.0020     8.4580    29.4940 h1         1 2IX       0.076700
     58 H191       -25.3900     9.6820    28.2840 h1         1 2IX       0.076700
     59 H231       -29.1670    10.1480    30.9040 hc         1 2IX       0.061700
     60 H252       -32.1830     9.0790    28.9580 h1         1 2IX       0.055200
     61 H251       -31.5660     9.1670    30.6150 h1         1 2IX       0.055200
     62 H292       -34.0810    14.6100    29.0630 ha         1 2IX       0.170000
     63 H291       -32.4990    13.6880    28.8030 ha         1 2IX       0.170000
     64 H311       -31.6010    12.9740    30.6120 h1         1 2IX       0.055200
     65 H312       -31.1620    11.5930    31.5910 h1         1 2IX       0.055200
     66 H321       -29.1310    12.6250    30.6530 hc         1 2IX       0.061700
     67 H322       -29.7640    12.4810    29.0140 hc         1 2IX       0.061700
     68 H352       -23.1960     8.9730    28.0640 h1         1 2IX       0.063700
     69 H351       -22.2670     8.5840    29.5160 h1         1 2IX       0.063700
     70 H362       -20.7570     8.7450    27.6690 h1         1 2IX       0.078700
     71 H361       -21.4230    10.2860    27.1230 h1         1 2IX       0.078700
     72 H401       -17.2610    13.4540    30.2740 h1         1 2IX       0.071200
     73 H402       -16.3770    12.6190    31.5590 h1         1 2IX       0.071200
     74 H411       -15.6350    14.9400    31.5030 h1         1 2IX       0.055950
     75 H412       -15.3730    14.8920    29.7460 h1         1 2IX       0.055950
     76 H431       -12.4070    12.8000    29.9990 h1         1 2IX       0.055950
     77 H432       -13.4880    13.6430    28.8680 h1         1 2IX       0.055950
     78 H441       -13.9510    11.2590    28.7320 h1         1 2IX       0.071200
     79 H442       -14.0800    11.0960    30.4880 h1         1 2IX       0.071200
     80 H012       -14.1250     5.2740    24.1620 hn         1 2IX       0.511500
     81 H011       -15.3980     4.2070    24.6450 hn         1 2IX       0.511500
     82 C27        -33.5030    11.2030    29.8600 c          1 2IX       0.607300
@<TRIPOS>BOND
     1     1    10 ar  
     2     1    12 ar  
     3     1    13 1   
     4     2     3 ar  
     5     2    13 ar  
     6     3    34 1   
     7     3    38 ar  
     8     4    14 1   
     9     4    34 1   
    10     4    45 1   
    11     4    46 1   
    12     5    36 1   
    13     5    47 1   
    14     5    48 1   
    15     5    49 1   
    16     6    17 1   
    17     6    36 1   
    18     6    42 2   
    19     7    17 1   
    20     7    18 1   
    21     7    50 1   
    22     7    51 1   
    23     8    19 2   
    24     8    52 1   
    25     8    82 1   
    26     9    31 1   
    27     9    32 ar  
    28     9    33 ar  
    29    10    11 1   
    30    10    32 ar  
    31    11    29 1   
    32    11    30 1   
    33    11    53 1   
    34    12    33 ar  
    35    12    54 1   
    36    13    40 ar  
    37    14    35 1   
    38    14    55 1   
    39    14    56 1   
    40    15    16 1   
    41    15    35 1   
    42    15    43 2   
    43    16    36 1   
    44    16    57 1   
    45    16    58 1   
    46    17    21 1   
    47    17    59 1   
    48    18    37 1   
    49    18    60 1   
    50    18    61 1   
    51    19    62 1   
    52    19    63 1   
    53    20    21 1   
    54    20    37 1   
    55    20    64 1   
    56    20    65 1   
    57    21    66 1   
    58    21    67 1   
    59    22    23 1   
    60    22    35 1   
    61    22    68 1   
    62    22    69 1   
    63    23    34 1   
    64    23    70 1   
    65    23    71 1   
    66    24    38 ar  
    67    24    39 1   
    68    24    40 ar  
    69    25    26 1   
    70    25    39 1   
    71    25    72 1   
    72    25    73 1   
    73    26    44 1   
    74    26    74 1   
    75    26    75 1   
    76    27    28 1   
    77    27    44 1   
    78    27    76 1   
    79    27    77 1   
    80    28    39 1   
    81    28    78 1   
    82    28    79 1   
    83    31    80 1   
    84    31    81 1   
    85    37    82 1   
    86    41    82 2   
@<TRIPOS>SUBSTRUCTURE
     1 2IX         1 TEMP              0 ****  ****    0 ROOT
