@<TRIPOS>MOLECULE
2IY
   24    25     1     0     0
SMALL
No Charge or Current Charge


@<TRIPOS>ATOM
      1 C9         -29.9860     0.5410   -25.1680 ca         1 2IY      -0.108500
      2 C5         -32.1910     1.6120   -25.4230 ca         1 2IY      -0.129500
      3 C2         -32.9810     2.7940   -25.8650 cc         1 2IY       0.347500
      4 C4         -35.2620     2.3900   -24.7700 cg         1 2IY       0.360000
      5 C6         -32.7780     0.4130   -24.9390 ca         1 2IY      -0.074000
      6 C3         -34.3570     3.0860   -25.6170 cc         1 2IY      -0.093000
      7 C7         -31.9840    -0.6830   -24.5580 ca         1 2IY      -0.108500
      8 N          -33.4110     4.6480   -26.8850 na         1 2IY       0.042800
      9 C          -35.4540     6.9140   -25.8960 c3         1 2IY       0.028900
     10 C1         -34.5980     4.2380   -26.2960 cd         1 2IY      -0.164000
     11 C10        -30.7770     1.6380   -25.5510 ca         1 2IY      -0.074000
     12 C8         -30.5890    -0.6180   -24.6660 ca         1 2IY       0.129000
     13 N1         -32.4030     3.7220   -26.6300 nd         1 2IY      -0.503800
     14 N2         -36.0240     1.8440   -24.0730 n1         1 2IY      -0.450000
     15 S          -36.0770     5.2050   -26.2130 ss         1 2IY      -0.128000
     16 Cl         -29.6010    -1.9930   -24.1910 cl         1 2IY      -0.198000
     17 H1         -28.9040     0.5900   -25.2630 ha         1 2IY       0.132000
     18 H2         -33.8510     0.2850   -24.8760 ha         1 2IY       0.129000
     19 H3         -32.4540    -1.5910   -24.1890 ha         1 2IY       0.132000
     20 H4         -33.2500     5.4860   -27.4440 hn         1 2IY       0.388000
     21 H5         -36.3040     7.5950   -25.7660 h1         1 2IY       0.071367
     22 H6         -34.8450     6.9210   -24.9830 h1         1 2IY       0.071367
     23 H7         -34.8470     7.2570   -26.7420 h1         1 2IY       0.071367
     24 H8         -30.2700     2.5220   -25.9340 ha         1 2IY       0.129000
@<TRIPOS>BOND
     1     1    11 ar  
     2     1    12 ar  
     3     1    17 1   
     4     2     3 1   
     5     2     5 ar  
     6     2    11 ar  
     7     3     6 1   
     8     3    13 2   
     9     4     6 1   
    10     4    14 3   
    11     5     7 ar  
    12     5    18 1   
    13     6    10 2   
    14     7    12 ar  
    15     7    19 1   
    16     8    10 1   
    17     8    13 1   
    18     8    20 1   
    19     9    15 1   
    20     9    21 1   
    21     9    22 1   
    22     9    23 1   
    23    10    15 1   
    24    11    24 1   
    25    12    16 1   
@<TRIPOS>SUBSTRUCTURE
     1 2IY         1 TEMP              0 ****  ****    0 ROOT
