@<TRIPOS>MOLECULE
2IY
   24    25     1     0     0
SMALL
abcg2


@<TRIPOS>ATOM
      1 C9         -30.0410     0.6100   -25.1440 ca         1 2IY      -0.108500
      2 C5         -32.1870     1.6320   -25.5890 ca         1 2IY      -0.129500
      3 C2         -32.9560     2.7420   -26.1540 cc         1 2IY       0.347500
      4 C4         -35.1390     2.7810   -24.8130 cg         1 2IY       0.360000
      5 C6         -32.8110     0.5530   -24.9650 ca         1 2IY      -0.074000
      6 C3         -34.2390     3.2280   -25.8000 cc         1 2IY      -0.093000
      7 C7         -32.0670    -0.4850   -24.4270 ca         1 2IY      -0.108500
      8 N          -33.3620     4.4110   -27.3870 na         1 2IY       0.042800
      9 C          -35.4520     6.5420   -25.3920 c3         1 2IY       0.028900
     10 C1         -34.4580     4.3210   -26.6280 cd         1 2IY      -0.164000
     11 C10        -30.7940     1.6430   -25.6730 ca         1 2IY      -0.074000
     12 C8         -30.6850    -0.4470   -24.5180 ca         1 2IY       0.129000
     13 N1         -32.4570     3.4830   -27.1270 nd         1 2IY      -0.503800
     14 N2         -35.8830     2.4220   -24.0080 n1         1 2IY      -0.450000
     15 S          -35.8240     5.3920   -26.7520 ss         1 2IY      -0.128000
     16 CL         -29.7480    -1.7350   -23.8430 cl         1 2IY      -0.198000
     17 H1         -28.9620     0.6340   -25.2130 ha         1 2IY       0.132000
     18 H2         -33.8890     0.4920   -24.9050 ha         1 2IY       0.129000
     19 H3         -32.5660    -1.3170   -23.9480 ha         1 2IY       0.132000
     20 H4         -33.1910     5.0960   -28.1110 hn         1 2IY       0.388000
     21 H5         -36.2580     7.2730   -25.3860 h1         1 2IY       0.071367
     22 H6         -35.4350     6.0210   -24.4390 h1         1 2IY       0.071367
     23 H7         -34.5080     7.0510   -25.5670 h1         1 2IY       0.071367
     24 H8         -30.2870     2.4720   -26.1480 ha         1 2IY       0.129000
@<TRIPOS>BOND
     1     1    11 ar  
     2     1    12 ar  
     3     1    17 1   
     4     2     3 1   
     5     2     5 ar  
     6     2    11 ar  
     7     3     6 1   
     8     3    13 2   
     9     4     6 1   
    10     4    14 3   
    11     5     7 ar  
    12     5    18 1   
    13     6    10 2   
    14     7    12 ar  
    15     7    19 1   
    16     8    10 1   
    17     8    13 1   
    18     8    20 1   
    19     9    15 1   
    20     9    21 1   
    21     9    22 1   
    22     9    23 1   
    23    10    15 1   
    24    11    24 1   
    25    12    16 1   
@<TRIPOS>SUBSTRUCTURE
     1 2IY         1 TEMP              0 ****  ****    0 ROOT
