@<TRIPOS>MOLECULE
2J1
   28    30     1     0     0
SMALL
bcc


@<TRIPOS>ATOM
      1 CL          -2.8250     2.0660    -0.1410 cl         1 2J1      -0.135400
      2 C1          -1.5850     0.8400    -0.0450 ca         1 2J1       0.046400
      3 C2          -0.2790     1.2930    -0.0700 ca         1 2J1      -0.121000
      4 C3           0.7570     0.3590    -0.0320 ca         1 2J1      -0.103800
      5 C6           2.1830     0.4500    -0.0210 cc         1 2J1      -0.138400
      6 C7           3.0770     1.6460    -0.0440 c6         1 2J1       0.006800
      7 C8           4.4940     1.2490     0.3740 c6         1 2J1      -0.073400
      8 C9           4.9540    -0.0300    -0.3230 c6         1 2J1      -0.065400
      9 C10          4.0860    -1.2310     0.0590 c6         1 2J1      -0.008200
     10 C5           2.6530    -0.8340     0.0200 cd         1 2J1      -0.094300
     11 N            1.6030    -1.7130     0.0340 na         1 2J1      -0.175400
     12 C4           0.4290    -1.0140     0.0010 ca         1 2J1      -0.049200
     13 C11         -0.8860    -1.4540    -0.0160 ca         1 2J1      -0.136000
     14 C12         -1.9220    -0.5270    -0.0170 ca         1 2J1      -0.093600
     15 C13         -3.3490    -1.0660     0.0480 c          1 2J1       0.928200
     16 O2          -3.5570    -2.1260    -0.5730 o          1 2J1      -0.813300
     17 O1          -4.1620    -0.4290     0.7380 o          1 2J1      -0.813300
     18 H1          -0.0680     2.3540    -0.1200 ha         1 2J1       0.123000
     19 H2           3.0980     2.0870    -1.0480 hc         1 2J1       0.039200
     20 H3           2.6950     2.4300     0.6170 hc         1 2J1       0.039200
     21 H4           5.1880     2.0630     0.1550 hc         1 2J1       0.031700
     22 H5           4.5240     1.0970     1.4580 hc         1 2J1       0.031700
     23 H6           4.9140     0.1140    -1.4070 hc         1 2J1       0.032700
     24 H7           5.9960    -0.2400    -0.0730 hc         1 2J1       0.032700
     25 H8           4.2760    -2.0700    -0.6170 hc         1 2J1       0.036700
     26 H9           4.3480    -1.5820     1.0630 hc         1 2J1       0.036700
     27 H10          1.6860    -2.7160     0.0550 hn         1 2J1       0.286700
     28 H11         -1.1160    -2.5110    -0.0140 ha         1 2J1       0.148000
@<TRIPOS>BOND
     1     1     2 1   
     2     2     3 ar  
     3     2    14 ar  
     4     3     4 ar  
     5     3    18 1   
     6     4     5 1   
     7     4    12 ar  
     8     5     6 1   
     9     5    10 2   
    10     6     7 1   
    11     6    19 1   
    12     6    20 1   
    13     7     8 1   
    14     7    21 1   
    15     7    22 1   
    16     8     9 1   
    17     8    23 1   
    18     8    24 1   
    19     9    10 1   
    20     9    25 1   
    21     9    26 1   
    22    10    11 1   
    23    11    12 1   
    24    11    27 1   
    25    12    13 ar  
    26    13    14 ar  
    27    13    28 1   
    28    14    15 1   
    29    15    16 1   
    30    15    17 1   
@<TRIPOS>SUBSTRUCTURE
     1 2J1         1 TEMP              0 ****  ****    0 ROOT
