@<TRIPOS>MOLECULE
2J1
   28    30     1     0     0
SMALL
No Charge or Current Charge


@<TRIPOS>ATOM
      1 Cl          -2.8600     2.0920    -0.1760 cl         1 2J1      -0.227000
      2 C1          -1.6080     0.8530    -0.0650 ca         1 2J1       0.138000
      3 C2          -0.2600     1.2690    -0.0540 ca         1 2J1      -0.103000
      4 C3           0.7340     0.2850     0.0040 ca         1 2J1      -0.103800
      5 C6           2.1610     0.4120     0.0250 cc         1 2J1      -0.138400
      6 C7           3.0430     1.6380    -0.0370 c6         1 2J1       0.006800
      7 C8           4.5100     1.2940     0.3360 c6         1 2J1      -0.073400
      8 C9           4.9870    -0.0100    -0.3540 c6         1 2J1      -0.065400
      9 C10          4.1330    -1.2260     0.0890 c6         1 2J1      -0.008200
     10 C5           2.6570    -0.8880     0.0650 cd         1 2J1      -0.094300
     11 N            1.5850    -1.8090     0.0860 na         1 2J1      -0.225700
     12 C4           0.4320    -1.0450     0.0420 ca         1 2J1      -0.049200
     13 C11         -0.8960    -1.4930     0.0310 ca         1 2J1      -0.118000
     14 C12         -1.9350    -0.5290    -0.0170 ca         1 2J1      -0.093600
     15 C13         -3.3680    -0.9850    -0.0250 c          1 2J1       0.717600
     16 O2          -3.7310    -1.7170    -0.9360 o          1 2J1      -0.708000
     17 O1          -4.0810    -0.6810     0.9220 o          1 2J1      -0.708000
     18 H1          -0.0010     2.3240    -0.0940 ha         1 2J1       0.105000
     19 H2           3.0180     2.0590    -1.0520 hc         1 2J1       0.039200
     20 H3           2.6670     2.4250     0.6300 hc         1 2J1       0.039200
     21 H4           5.1680     2.1290     0.0610 hc         1 2J1       0.031700
     22 H5           4.5930     1.1790     1.4260 hc         1 2J1       0.031700
     23 H6           4.9210     0.1090    -1.4440 hc         1 2J1       0.032700
     24 H7           6.0450    -0.1950    -0.1240 hc         1 2J1       0.032700
     25 H8           4.3470    -2.0850    -0.5610 hc         1 2J1       0.036700
     26 H9           4.4250    -1.5240     1.1050 hc         1 2J1       0.036700
     27 H10          1.6490    -2.8210     0.1190 hn         1 2J1       0.337000
     28 H11         -1.1250    -2.5550     0.0620 ha         1 2J1       0.130000
@<TRIPOS>BOND
     1     1     2 1   
     2     2     3 ar  
     3     2    14 ar  
     4     3     4 ar  
     5     3    18 1   
     6     4     5 1   
     7     4    12 ar  
     8     5     6 1   
     9     5    10 2   
    10     6     7 1   
    11     6    19 1   
    12     6    20 1   
    13     7     8 1   
    14     7    21 1   
    15     7    22 1   
    16     8     9 1   
    17     8    23 1   
    18     8    24 1   
    19     9    10 1   
    20     9    25 1   
    21     9    26 1   
    22    10    11 1   
    23    11    12 1   
    24    11    27 1   
    25    12    13 ar  
    26    13    14 ar  
    27    13    28 1   
    28    14    15 1   
    29    15    16 1   
    30    15    17 1   
@<TRIPOS>SUBSTRUCTURE
     1 2J1         1 TEMP              0 ****  ****    0 ROOT
