@<TRIPOS>MOLECULE
2J2
   28    30     1     0     0
SMALL
No Charge or Current Charge


@<TRIPOS>ATOM
      1 C4           1.3390     0.0510     0.3250 cc         1 2J2       0.027700
      2 C5           0.3720    -0.9200     0.0980 cd         1 2J2      -0.208400
      3 C6           0.7350    -2.3810    -0.0710 c6         1 2J2       0.016800
      4 C7           2.1600    -2.6770     0.4690 c6         1 2J2      -0.080400
      5 C8           3.1860    -1.6230    -0.0220 c6         1 2J2      -0.049400
      6 C10          3.6960     0.8910    -0.1980 c          1 2J2       0.729000
      7 O1           3.4520     1.1690    -1.3630 o          1 2J2      -0.725500
      8 O            4.2930     1.6590     0.5430 o          1 2J2      -0.725500
      9 C9           2.8240    -0.1940     0.4780 c6         1 2J2      -0.156500
     10 C2          -0.9290    -0.2970     0.0570 ca         1 2J2      -0.074800
     11 C1          -2.2090    -0.8290    -0.1460 ca         1 2J2      -0.069000
     12 N            0.6370     1.2660     0.4400 na         1 2J2      -0.189700
     13 C3          -0.7200     1.0380     0.2710 ca         1 2J2      -0.059200
     14 C11         -1.7810     1.9530     0.2990 ca         1 2J2      -0.109000
     15 C12         -3.0870     1.4510     0.0970 ca         1 2J2      -0.124000
     16 C           -3.2970     0.0680    -0.1240 ca         1 2J2       0.085000
     17 Cl          -4.9310    -0.5350    -0.3730 cl         1 2J2      -0.264000
     18 H1           0.0060    -3.0230     0.4420 hc         1 2J2       0.025200
     19 H2           0.6870    -2.6500    -1.1350 hc         1 2J2       0.025200
     20 H3           2.1430    -2.6850     1.5680 hc         1 2J2       0.022200
     21 H4           2.4730    -3.6820     0.1550 hc         1 2J2       0.022200
     22 H5           4.1960    -1.8930     0.3180 hc         1 2J2       0.047700
     23 H6           3.2160    -1.6390    -1.1210 hc         1 2J2       0.047700
     24 H8           3.0640    -0.1700     1.5490 hc         1 2J2       0.050700
     25 H9          -2.3580    -1.8920    -0.3140 ha         1 2J2       0.116000
     26 H10          1.0620     2.1690     0.6180 hn         1 2J2       0.400000
     27 H11         -1.6080     3.0130     0.4700 ha         1 2J2       0.111000
     28 H12         -3.9350     2.1310     0.1110 ha         1 2J2       0.108000
@<TRIPOS>BOND
     1     1     2 2   
     2     1     9 1   
     3     1    12 1   
     4     2     3 1   
     5     2    10 1   
     6     3     4 1   
     7     3    18 1   
     8     3    19 1   
     9     4     5 1   
    10     4    20 1   
    11     4    21 1   
    12     5     9 1   
    13     5    22 1   
    14     5    23 1   
    15     6     7 1   
    16     6     8 1   
    17     6     9 1   
    18     9    24 1   
    19    10    11 ar  
    20    10    13 ar  
    21    11    16 ar  
    22    11    25 1   
    23    12    13 1   
    24    12    26 1   
    25    13    14 ar  
    26    14    15 ar  
    27    14    27 1   
    28    15    16 ar  
    29    15    28 1   
    30    16    17 1   
@<TRIPOS>SUBSTRUCTURE
     1 2J2         1 TEMP              0 ****  ****    0 ROOT
