@<TRIPOS>MOLECULE
2J2
   28    30     1     0     0
SMALL
bcc


@<TRIPOS>ATOM
      1 C4           1.2870    -0.0030     0.3250 cc         1 2J2       0.027700
      2 C5           0.3620    -0.9890     0.1020 cd         1 2J2      -0.208400
      3 C6           0.7200    -2.4260    -0.0860 c6         1 2J2       0.016800
      4 C7           2.1670    -2.6610     0.3550 c6         1 2J2      -0.080400
      5 C8           3.1050    -1.5710    -0.1610 c6         1 2J2      -0.049400
      6 C10          3.6030     0.9710    -0.1400 c          1 2J2       0.939600
      7 O1           4.6420     0.6830    -0.7540 o          1 2J2      -0.830800
      8 O            3.1880     2.1260     0.1110 o          1 2J2      -0.830800
      9 C9           2.7640    -0.2020     0.4290 c6         1 2J2      -0.156500
     10 C2          -0.9150    -0.3520     0.0960 ca         1 2J2      -0.074800
     11 C1          -2.2240    -0.8120    -0.0810 ca         1 2J2      -0.087000
     12 N            0.6560     1.1990     0.4740 na         1 2J2      -0.139400
     13 C3          -0.6870     1.0280     0.3260 ca         1 2J2      -0.059200
     14 C11         -1.7310     1.9460     0.3680 ca         1 2J2      -0.127000
     15 C12         -3.0200     1.4780     0.1890 ca         1 2J2      -0.142000
     16 C           -3.2460     0.1130    -0.0300 ca         1 2J2      -0.006600
     17 CL          -4.8900    -0.4280    -0.2460 cl         1 2J2      -0.172400
     18 H1           0.0450    -3.0750     0.4800 hc         1 2J2       0.025200
     19 H2           0.6030    -2.7160    -1.1360 hc         1 2J2       0.025200
     20 H3           2.2130    -2.6860     1.4490 hc         1 2J2       0.022200
     21 H4           2.5040    -3.6400     0.0080 hc         1 2J2       0.022200
     22 H5           4.1380    -1.8220     0.0800 hc         1 2J2       0.047700
     23 H6           3.0410    -1.5260    -1.2530 hc         1 2J2       0.047700
     24 H8           3.0120    -0.2320     1.5020 hc         1 2J2       0.050700
     25 H9          -2.4290    -1.8600    -0.2570 ha         1 2J2       0.134000
     26 H10          1.1820     2.0590     0.5390 hn         1 2J2       0.349700
     27 H11         -1.5510     3.0010     0.5350 ha         1 2J2       0.129000
     28 H12         -3.8540     2.1660     0.2170 ha         1 2J2       0.126000
@<TRIPOS>BOND
     1     1     2 2   
     2     1     9 1   
     3     1    12 1   
     4     2     3 1   
     5     2    10 1   
     6     3     4 1   
     7     3    18 1   
     8     3    19 1   
     9     4     5 1   
    10     4    20 1   
    11     4    21 1   
    12     5     9 1   
    13     5    22 1   
    14     5    23 1   
    15     6     7 1   
    16     6     8 1   
    17     6     9 1   
    18     9    24 1   
    19    10    11 ar  
    20    10    13 ar  
    21    11    16 ar  
    22    11    25 1   
    23    12    13 1   
    24    12    26 1   
    25    13    14 ar  
    26    14    15 ar  
    27    14    27 1   
    28    15    16 ar  
    29    15    28 1   
    30    16    17 1   
@<TRIPOS>SUBSTRUCTURE
     1 2J2         1 TEMP              0 ****  ****    0 ROOT
