@<TRIPOS>MOLECULE
2J3
   33    32     1     0     0
SMALL
abcg2


@<TRIPOS>ATOM
      1 O1           2.9820    -1.8510     0.0710 oh         1 2J3      -0.699000
      2 O2           1.2440     0.3440    -0.3510 os         1 2J3      -0.432000
      3 C3           3.4140    -0.6410    -0.5160 c3         1 2J3       0.168300
      4 O3          -1.5550     0.1060    -0.2390 os         1 2J3      -0.430000
      5 C4           2.5950     0.5470    -0.0350 c3         1 2J3       0.128600
      6 C5           0.4100     1.4620    -0.1260 c3         1 2J3       0.178300
      7 C16          4.8960    -0.3880    -0.2760 c3         1 2J3      -0.129100
      8 C15          0.2190     1.7680     1.3550 c3         1 2J3      -0.120100
      9 C6          -0.9070     1.2020    -0.8290 c3         1 2J3       0.167600
     10 C7          -2.9010    -0.0600    -0.6400 c3         1 2J3       0.174300
     11 C14         -3.8320     0.8700     0.1290 c3         1 2J3      -0.116100
     12 C8          -3.2640    -1.5220    -0.4770 c3         1 2J3       0.167600
     13 H1           3.1470    -1.8030     1.0190 ho         1 2J3       0.496000
     14 H2           3.2450    -0.7640    -1.5900 h1         1 2J3       0.080700
     15 H3           2.9760     1.4610    -0.5140 h1         1 2J3       0.019700
     16 H4           2.7470     0.6730     1.0480 h1         1 2J3       0.019700
     17 H5          -3.4840    -2.8040     0.9560 ho         1 2J3       0.499000
     18 H6           0.8460     2.3500    -0.6110 h1         1 2J3       0.024700
     19 H7           5.4920    -1.2410    -0.5980 hc         1 2J3       0.041700
     20 H8           5.2390     0.4870    -0.8300 hc         1 2J3       0.041700
     21 H9           5.0990    -0.2100     0.7830 hc         1 2J3       0.041700
     22 H10         -0.1570     0.8990     1.8950 hc         1 2J3       0.044033
     23 H11          1.1480     2.0880     1.8270 hc         1 2J3       0.044033
     24 H12         -0.4990     2.5790     1.4800 hc         1 2J3       0.044033
     25 H13         -0.7270     1.0210    -1.8990 h1         1 2J3       0.025700
     26 H14         -1.5070     2.1180    -0.7590 h1         1 2J3       0.025700
     27 H15         -3.0000     0.1540    -1.7160 h1         1 2J3       0.027700
     28 H16         -3.6060     1.9170    -0.0730 hc         1 2J3       0.042367
     29 H17         -4.8690     0.7040    -0.1660 hc         1 2J3       0.042367
     30 H18         -3.7510     0.7090     1.2040 hc         1 2J3       0.042367
     31 H19         -2.5590    -2.1270    -1.0630 h1         1 2J3       0.024200
     32 H20         -4.2570    -1.6730    -0.9210 h1         1 2J3       0.024200
     33 O4          -3.2440    -1.8760     0.8860 oh         1 2J3      -0.706000
@<TRIPOS>BOND
     1     1     3 1   
     2     1    13 1   
     3     2     5 1   
     4     2     6 1   
     5     3     5 1   
     6     3     7 1   
     7     3    14 1   
     8     4     9 1   
     9     4    10 1   
    10     5    15 1   
    11     5    16 1   
    12     6     8 1   
    13     6     9 1   
    14     6    18 1   
    15     7    19 1   
    16     7    20 1   
    17     7    21 1   
    18     8    22 1   
    19     8    23 1   
    20     8    24 1   
    21     9    25 1   
    22     9    26 1   
    23    10    11 1   
    24    10    12 1   
    25    10    27 1   
    26    11    28 1   
    27    11    29 1   
    28    11    30 1   
    29    12    31 1   
    30    12    32 1   
    31    12    33 1   
    32    17    33 1   
@<TRIPOS>SUBSTRUCTURE
     1 2J3         1 TEMP              0 ****  ****    0 ROOT
