@<TRIPOS>MOLECULE
2J3
   33    32     1     0     0
SMALL
No Charge or Current Charge


@<TRIPOS>ATOM
      1 O1           2.7390    -1.6820    -0.5290 oh         1 2J3      -0.699000
      2 O2           1.3100     0.5560    -0.4070 os         1 2J3      -0.432000
      3 C3           3.4710    -0.4730    -0.7650 c3         1 2J3       0.168300
      4 O3          -1.5630     0.1940    -0.0690 os         1 2J3      -0.430000
      5 C4           2.7150     0.7090    -0.1050 c3         1 2J3       0.128600
      6 C5           0.4360     1.6180     0.0420 c3         1 2J3       0.178300
      7 C16          4.9100    -0.6380    -0.2400 c3         1 2J3      -0.129100
      8 C15          0.3950     1.6460     1.5900 c3         1 2J3      -0.120100
      9 C6          -0.9610     1.3960    -0.6040 c3         1 2J3       0.167600
     10 C7          -2.8220    -0.2100    -0.6570 c3         1 2J3       0.174300
     11 C14         -3.9160     0.8340    -0.3180 c3         1 2J3      -0.116100
     12 C8          -3.1650    -1.6450    -0.1460 c3         1 2J3       0.167600
     13 H1           1.8030    -1.3750    -0.4490 ho         1 2J3       0.496000
     14 H2           3.5200    -0.2720    -1.8460 h1         1 2J3       0.080700
     15 H3           3.1020     1.6580    -0.4990 h1         1 2J3       0.019700
     16 H4           2.8880     0.6870     0.9780 h1         1 2J3       0.019700
     17 H5          -3.5210    -2.6370     1.5170 ho         1 2J3       0.499000
     18 H6           0.8110     2.5870    -0.3140 h1         1 2J3       0.024700
     19 H7           5.4150    -1.4670    -0.7500 hc         1 2J3       0.041700
     20 H8           5.4890     0.2760    -0.4190 hc         1 2J3       0.041700
     21 H9           4.9130    -0.8420     0.8380 hc         1 2J3       0.041700
     22 H10          0.1970     0.6470     1.9970 hc         1 2J3       0.044033
     23 H11          1.3420     2.0110     2.0040 hc         1 2J3       0.044033
     24 H12         -0.3970     2.3200     1.9370 hc         1 2J3       0.044033
     25 H13         -0.8450     1.3220    -1.6930 h1         1 2J3       0.025700
     26 H14         -1.5840     2.2730    -0.3880 h1         1 2J3       0.025700
     27 H15         -2.7240    -0.2670    -1.7500 h1         1 2J3       0.027700
     28 H16         -3.7540     1.7700    -0.8650 hc         1 2J3       0.042367
     29 H17         -4.9040     0.4550    -0.6030 hc         1 2J3       0.042367
     30 H18         -3.9310     1.0530     0.7560 hc         1 2J3       0.042367
     31 H19         -2.3430    -2.3190    -0.4240 h1         1 2J3       0.024200
     32 H20         -4.0620    -1.9960    -0.6740 h1         1 2J3       0.024200
     33 O4          -3.3840    -1.6910     1.2790 oh         1 2J3      -0.706000
@<TRIPOS>BOND
     1     1     3 1   
     2     1    13 1   
     3     2     5 1   
     4     2     6 1   
     5     3     5 1   
     6     3     7 1   
     7     3    14 1   
     8     4     9 1   
     9     4    10 1   
    10     5    15 1   
    11     5    16 1   
    12     6     8 1   
    13     6     9 1   
    14     6    18 1   
    15     7    19 1   
    16     7    20 1   
    17     7    21 1   
    18     8    22 1   
    19     8    23 1   
    20     8    24 1   
    21     9    25 1   
    22     9    26 1   
    23    10    11 1   
    24    10    12 1   
    25    10    27 1   
    26    11    28 1   
    27    11    29 1   
    28    11    30 1   
    29    12    31 1   
    30    12    32 1   
    31    12    33 1   
    32    17    33 1   
@<TRIPOS>SUBSTRUCTURE
     1 2J3         1 TEMP              0 ****  ****    0 ROOT
