@<TRIPOS>MOLECULE
2J4
   26    27     1     0     0
SMALL
No Charge or Current Charge


@<TRIPOS>ATOM
      1 O6           3.2620     2.2780     0.1080 oh         1 2J4      -0.701000
      2 C6           3.1150     0.8470     0.0300 c3         1 2J4       0.171600
      3 C5           1.6280     0.3730     0.1440 c6         1 2J4       0.130300
      4 O5           0.8590     1.0660    -0.8740 os         1 2J4      -0.397000
      5 C4           1.4660    -1.1710     0.0000 c6         1 2J4       0.100300
      6 O4           2.2030    -1.8940     1.0140 oh         1 2J4      -0.719000
      7 C3          -0.0360    -1.5360     0.0950 c6         1 2J4       0.168300
      8 O3          -0.1820    -2.9610    -0.0370 oh         1 2J4      -0.638000
      9 C2          -0.8630    -0.7610    -0.9800 c5         1 2J4       0.109500
     10 C1          -0.5580     0.7760    -1.0230 c5         1 2J4       0.328300
     11 S1          -1.5150     1.4330     0.3950 ss         1 2J4      -0.485200
     12 N2          -2.3400    -0.8680    -0.6730 n2         1 2J4      -0.667900
     13 C7          -2.6500     0.1530     0.0210 c2         1 2J4       0.717100
     14 N1          -3.8480     0.3740     0.5770 nv         1 2J4      -1.048200
     15 H6           4.2170     2.4770    -0.0380 ho         1 2J4       0.504000
     16 H6C1         3.5190     0.4800    -0.9230 h1         1 2J4       0.026700
     17 H6C2         3.6930     0.3740     0.8350 h1         1 2J4       0.026700
     18 H5           1.2540     0.6790     1.1320 h1         1 2J4       0.083700
     19 H4           1.8260    -1.4590    -1.0000 h1         1 2J4       0.054700
     20 H1          -0.9450     1.2180    -1.9510 h2         1 2J4       0.112700
     21 HA           3.1370    -1.9820     0.7050 ho         1 2J4       0.511000
     22 H3          -0.3840    -1.2260     1.0920 h1         1 2J4       0.054700
     23 HB           0.5640    -3.3300     0.4870 ho         1 2J4       0.454000
     24 H2          -0.6440    -1.1950    -1.9650 h1         1 2J4       0.101700
     25 H1N         -3.7930     0.9740     1.3900 hn         1 2J4       0.500500
     26 H2N         -4.3760    -0.4800     0.7150 hn         1 2J4       0.500500
@<TRIPOS>BOND
     1     1     2 1   
     2     1    15 1   
     3     2     3 1   
     4     2    16 1   
     5     2    17 1   
     6     3     4 1   
     7     3     5 1   
     8     3    18 1   
     9     4    10 1   
    10     5     6 1   
    11     5     7 1   
    12     5    19 1   
    13     6    21 1   
    14     7     8 1   
    15     7     9 1   
    16     7    22 1   
    17     8    23 1   
    18     9    10 1   
    19     9    12 1   
    20     9    24 1   
    21    10    11 1   
    22    10    20 1   
    23    11    13 1   
    24    12    13 2   
    25    13    14 1   
    26    14    25 1   
    27    14    26 1   
@<TRIPOS>SUBSTRUCTURE
     1 2J4         1 TEMP              0 ****  ****    0 ROOT
