@<TRIPOS>MOLECULE
2J4
   26    27     1     0     0
SMALL
bcc


@<TRIPOS>ATOM
      1 O6           3.1270     2.2330     0.1710 oh         1 2J4      -0.578800
      2 C6           3.0840     0.8410    -0.0320 c3         1 2J4       0.148400
      3 C5           1.6530     0.3720     0.0960 c6         1 2J4       0.107100
      4 O5           0.9110     1.0060    -0.9350 os         1 2J4      -0.350600
      5 C4           1.5110    -1.1460    -0.0460 c6         1 2J4       0.077100
      6 O4           2.2170    -1.8300     0.9650 oh         1 2J4      -0.596800
      7 C3           0.0410    -1.5150     0.1020 c6         1 2J4       0.145100
      8 O3          -0.1770    -2.8890    -0.0880 oh         1 2J4      -0.575800
      9 C2          -0.8230    -0.7630    -0.9100 c5         1 2J4       0.109500
     10 C1          -0.4310     0.7220    -0.9950 c5         1 2J4       0.257200
     11 S1          -1.4390     1.4880     0.3690 ss         1 2J4      -0.437300
     12 N2          -2.2180    -0.8490    -0.5580 n2         1 2J4      -0.667900
     13 C7          -2.5950     0.1550     0.1340 c2         1 2J4       0.717100
     14 N1          -3.8110     0.2960     0.6800 nv         1 2J4      -0.937800
     15 H6           4.0480     2.5060     0.1610 ho         1 2J4       0.405000
     16 H6C1         3.4690     0.5600    -1.0230 h1         1 2J4       0.026700
     17 H6C2         3.6870     0.3080     0.7120 h1         1 2J4       0.026700
     18 H5           1.2610     0.6730     1.0800 h1         1 2J4       0.083700
     19 H4           1.8640    -1.4430    -1.0450 h1         1 2J4       0.054700
     20 H1          -0.7970     1.1540    -1.9270 h2         1 2J4       0.112700
     21 HA           3.0910    -2.0630     0.6400 ho         1 2J4       0.412000
     22 H3          -0.2700    -1.2060     1.1130 h1         1 2J4       0.054700
     23 HB           0.3440    -3.3620     0.5680 ho         1 2J4       0.415000
     24 H2          -0.6510    -1.2070    -1.8970 h1         1 2J4       0.101700
     25 H1N         -4.0520     1.0920     1.2420 hn         1 2J4       0.445300
     26 H2N         -4.4340    -0.4940     0.7000 hn         1 2J4       0.445300
@<TRIPOS>BOND
     1     1     2 1   
     2     1    15 1   
     3     2     3 1   
     4     2    16 1   
     5     2    17 1   
     6     3     4 1   
     7     3     5 1   
     8     3    18 1   
     9     4    10 1   
    10     5     6 1   
    11     5     7 1   
    12     5    19 1   
    13     6    21 1   
    14     7     8 1   
    15     7     9 1   
    16     7    22 1   
    17     8    23 1   
    18     9    10 1   
    19     9    12 1   
    20     9    24 1   
    21    10    11 1   
    22    10    20 1   
    23    11    13 1   
    24    12    13 2   
    25    13    14 1   
    26    14    25 1   
    27    14    26 1   
@<TRIPOS>SUBSTRUCTURE
     1 2J4         1 TEMP              0 ****  ****    0 ROOT
