@<TRIPOS>MOLECULE
2J5
   30    31     1     0     0
SMALL
No Charge or Current Charge


@<TRIPOS>ATOM
      1 C4          -2.7990    -1.1120     1.4470 ca         1 2J5       0.370900
      2 C5          -1.6320     0.2190    -0.0140 ca         1 2J5       0.570900
      3 C6           0.4850    -0.5770    -1.1550 c3         1 2J5       0.242100
      4 N1          -0.3950     0.4470    -0.5710 nu         1 2J5      -0.918100
      5 C7           1.8920    -0.4190    -0.5980 ca         1 2J5      -0.203300
      6 C8           2.9810    -0.2420    -1.4770 ca         1 2J5      -0.063000
      7 C9           4.2880    -0.1260    -0.9720 ca         1 2J5      -0.154000
      8 C10          4.5190    -0.1880     0.4130 ca         1 2J5      -0.069000
      9 C11          3.4380    -0.3650     1.2920 ca         1 2J5      -0.157000
     10 C12          2.1320    -0.4780     0.7890 ca         1 2J5       0.165100
     11 O            1.0920    -0.6330     1.6500 oh         1 2J5      -0.553100
     12 C1          -2.7510     1.0390    -0.2740 ca         1 2J5      -0.168300
     13 C           -2.6770     2.2260    -1.2320 c3         1 2J5      -0.041800
     14 N           -1.6360    -0.8200     0.8260 nb         1 2J5      -0.727000
     15 C3          -3.9750    -0.3700     1.2520 ca         1 2J5      -0.198000
     16 C2          -3.9580     0.7280     0.3780 ca         1 2J5      -0.046000
     17 H1          -2.7870    -1.9650     2.1240 h4         1 2J5       0.019100
     18 H2           0.1270    -1.5900    -0.9240 h1         1 2J5       0.063200
     19 H3           0.4940    -0.4830    -2.2510 h1         1 2J5       0.063200
     20 H4          -0.3430     1.3550    -1.0260 hn         1 2J5       0.465000
     21 H5           2.8180    -0.1990    -2.5520 ha         1 2J5       0.109000
     22 H6           5.1230     0.0100    -1.6550 ha         1 2J5       0.115000
     23 H7           5.5310    -0.0990     0.8020 ha         1 2J5       0.113000
     24 H8           3.6120    -0.4100     2.3640 ha         1 2J5       0.127000
     25 H9           0.2620    -0.5160     1.1080 ho         1 2J5       0.496000
     26 H10         -2.3340     1.9110    -2.2250 hc         1 2J5       0.044367
     27 H11         -3.6560     2.7040    -1.3600 hc         1 2J5       0.044367
     28 H12         -1.9850     2.9900    -0.8600 hc         1 2J5       0.044367
     29 H13         -4.8850    -0.6470     1.7780 ha         1 2J5       0.126000
     30 H14         -4.8560     1.3200     0.2160 ha         1 2J5       0.117000
@<TRIPOS>BOND
     1     1    14 ar  
     2     1    15 ar  
     3     1    17 1   
     4     2     4 1   
     5     2    12 ar  
     6     2    14 ar  
     7     3     4 1   
     8     3     5 1   
     9     3    18 1   
    10     3    19 1   
    11     4    20 1   
    12     5     6 ar  
    13     5    10 ar  
    14     6     7 ar  
    15     6    21 1   
    16     7     8 ar  
    17     7    22 1   
    18     8     9 ar  
    19     8    23 1   
    20     9    10 ar  
    21     9    24 1   
    22    10    11 1   
    23    11    25 1   
    24    12    13 1   
    25    12    16 ar  
    26    13    26 1   
    27    13    27 1   
    28    13    28 1   
    29    15    16 ar  
    30    15    29 1   
    31    16    30 1   
@<TRIPOS>SUBSTRUCTURE
     1 2J5         1 TEMP              0 ****  ****    0 ROOT
