@<TRIPOS>MOLECULE
2J5
   30    31     1     0     0
SMALL
bcc


@<TRIPOS>ATOM
      1 C4          -3.4710    -1.5550     0.4140 ca         1 2J5       0.436200
      2 C5          -1.7880    -0.0770    -0.0310 ca         1 2J5       0.636200
      3 C6           0.4670    -0.9790    -0.4270 c3         1 2J5       0.242100
      4 N1          -0.4300     0.1480    -0.2060 nu         1 2J5      -0.862900
      5 C7           1.9000    -0.5240    -0.3670 ca         1 2J5      -0.203300
      6 C8           2.8110    -0.9040    -1.3450 ca         1 2J5      -0.081000
      7 C9           4.1530    -0.5570    -1.2610 ca         1 2J5      -0.172000
      8 C10          4.5910     0.1950    -0.1790 ca         1 2J5      -0.087000
      9 C11          3.6970     0.6040     0.7990 ca         1 2J5      -0.175000
     10 C12          2.3540     0.2500     0.7120 ca         1 2J5       0.165100
     11 O            1.5180     0.6570     1.6880 oh         1 2J5      -0.514100
     12 C1          -2.6760     1.0200    -0.0550 ca         1 2J5      -0.233600
     13 C           -2.1820     2.4130    -0.2950 c3         1 2J5      -0.041800
     14 N           -2.1790    -1.3200     0.1940 nb         1 2J5      -0.727000
     15 C3          -4.4310    -0.5660     0.4060 ca         1 2J5      -0.281300
     16 C2          -4.0100     0.7400     0.1650 ca         1 2J5      -0.064000
     17 H1          -3.7430    -2.5890     0.5990 h4         1 2J5       0.019100
     18 H2           0.2780    -1.7160     0.3540 h1         1 2J5       0.063200
     19 H3           0.2700    -1.4780    -1.3810 h1         1 2J5       0.063200
     20 H4          -0.2250     0.9290    -0.8160 hn         1 2J5       0.409800
     21 H5           2.4600    -1.4910    -2.1860 ha         1 2J5       0.127000
     22 H6           4.8460    -0.8690    -2.0310 ha         1 2J5       0.133000
     23 H7           5.6330     0.4760    -0.0980 ha         1 2J5       0.131000
     24 H8           4.0350     1.1990     1.6390 ha         1 2J5       0.145000
     25 H9           0.6030     0.6000     1.3490 ho         1 2J5       0.457000
     26 H10         -1.7420     2.5260    -1.2900 hc         1 2J5       0.044367
     27 H11         -2.9960     3.1320    -0.2190 hc         1 2J5       0.044367
     28 H12         -1.4160     2.6990     0.4280 hc         1 2J5       0.044367
     29 H13         -5.4710    -0.8010     0.5810 ha         1 2J5       0.144000
     30 H14         -4.7310     1.5480     0.1540 ha         1 2J5       0.135000
@<TRIPOS>BOND
     1     1    14 ar  
     2     1    15 ar  
     3     1    17 1   
     4     2     4 1   
     5     2    12 ar  
     6     2    14 ar  
     7     3     4 1   
     8     3     5 1   
     9     3    18 1   
    10     3    19 1   
    11     4    20 1   
    12     5     6 ar  
    13     5    10 ar  
    14     6     7 ar  
    15     6    21 1   
    16     7     8 ar  
    17     7    22 1   
    18     8     9 ar  
    19     8    23 1   
    20     9    10 ar  
    21     9    24 1   
    22    10    11 1   
    23    11    25 1   
    24    12    13 1   
    25    12    16 ar  
    26    13    26 1   
    27    13    27 1   
    28    13    28 1   
    29    15    16 ar  
    30    15    29 1   
    31    16    30 1   
@<TRIPOS>SUBSTRUCTURE
     1 2J5         1 TEMP              0 ****  ****    0 ROOT
