@<TRIPOS>MOLECULE
2J6
   35    37     1     0     0
SMALL
No Charge or Current Charge


@<TRIPOS>ATOM
      1 C9          -2.1760    -0.9710     0.4610 ca         1 2J6      -0.216300
      2 C2           3.9200    -0.8160    -0.3100 ca         1 2J6       0.006000
      3 C10         -3.0940    -0.6990     1.4960 ca         1 2J6      -0.038000
      4 C4           1.5620    -1.1980     0.0230 ca         1 2J6       0.633900
      5 N5           1.7010    -2.5240    -0.0780 nb         1 2J6      -0.758000
      6 C6           2.9370    -3.0190    -0.2780 ca         1 2J6       0.407900
      7 C1           4.0670    -2.2050    -0.4000 ca         1 2J6      -0.232000
      8 C3           2.6310    -0.2660    -0.0890 cp         1 2J6      -0.273500
      9 N7           0.2450    -0.8160     0.1630 nu         1 2J6      -0.937100
     10 C8          -0.8300    -1.6080     0.7820 c3         1 2J6       0.262100
     11 C11         -4.3530    -0.1510     1.1930 ca         1 2J6      -0.197000
     12 C12         -4.6980     0.1200    -0.1400 ca         1 2J6       0.211000
     13 C13         -3.7930    -0.1480    -1.1740 ca         1 2J6      -0.203000
     14 C14         -2.5380    -0.6890    -0.8710 ca         1 2J6       0.193100
     15 O15         -1.6430    -0.9230    -1.8640 oh         1 2J6      -0.544100
     16 F16         -5.9090     0.6450    -0.4260 f          1 2J6      -0.178000
     17 C17          2.4640     1.2280     0.0060 cp         1 2J6       0.222500
     18 N18          1.4620     1.7270     0.7660 nb         1 2J6      -0.204000
     19 C19          1.3420     3.0660     0.8550 ca         1 2J6       0.128900
     20 C20          2.2270     3.9210     0.1820 ca         1 2J6      -0.228000
     21 C21          3.2400     3.3270    -0.5850 ca         1 2J6       0.128900
     22 N22          3.3560     1.9870    -0.6700 nb         1 2J6      -0.204000
     23 H2          -2.8380    -0.9160     2.5310 ha         1 2J6       0.115000
     24 H3           3.0210    -4.1030    -0.3490 h4         1 2J6       0.019100
     25 H4           5.0430    -2.6520    -0.5640 ha         1 2J6       0.130000
     26 H5           0.1870     0.1840     0.3530 hn         1 2J6       0.519000
     27 H6          -0.6800    -1.6690     1.8700 h1         1 2J6       0.062700
     28 H7          -0.8390    -2.6360     0.3920 h1         1 2J6       0.062700
     29 H8          -5.0630     0.0600     1.9880 ha         1 2J6       0.134000
     30 H9          -4.0620     0.0700    -2.2030 ha         1 2J6       0.146000
     31 H10         -0.7820    -1.0570    -1.3880 ho         1 2J6       0.498000
     32 H11          0.5300     3.4520     1.4700 h4         1 2J6       0.027600
     33 H12          2.1320     5.0020     0.2520 ha         1 2J6       0.139000
     34 H13          3.9660     3.9240    -1.1350 h4         1 2J6       0.027600
     35 H1           4.7990    -0.1800    -0.4000 ha         1 2J6       0.140000
@<TRIPOS>BOND
     1     1     3 ar  
     2     1    10 1   
     3     1    14 ar  
     4     2     7 ar  
     5     2     8 ar  
     6     2    35 1   
     7     3    11 ar  
     8     3    23 1   
     9     4     5 ar  
    10     4     8 ar  
    11     4     9 1   
    12     5     6 ar  
    13     6     7 ar  
    14     6    24 1   
    15     7    25 1   
    16     8    17 1   
    17     9    10 1   
    18     9    26 1   
    19    10    27 1   
    20    10    28 1   
    21    11    12 ar  
    22    11    29 1   
    23    12    13 ar  
    24    12    16 1   
    25    13    14 ar  
    26    13    30 1   
    27    14    15 1   
    28    15    31 1   
    29    17    18 ar  
    30    17    22 ar  
    31    18    19 ar  
    32    19    20 ar  
    33    19    32 1   
    34    20    21 ar  
    35    20    33 1   
    36    21    22 ar  
    37    21    34 1   
@<TRIPOS>SUBSTRUCTURE
     1 2J6         1 TEMP              0 ****  ****    0 ROOT
