@<TRIPOS>MOLECULE
2J6
   35    37     1     0     0
SMALL
bcc


@<TRIPOS>ATOM
      1 C9          -2.1680    -0.9830     0.4720 ca         1 2J6      -0.216300
      2 C2           3.8580    -0.8190    -0.3150 ca         1 2J6      -0.012000
      3 C10         -3.1000    -0.9030     1.4970 ca         1 2J6      -0.056000
      4 C4           1.5200    -1.1700     0.0660 ca         1 2J6       0.699200
      5 N5           1.7050    -2.4870     0.0640 nb         1 2J6      -0.758000
      6 C6           2.9190    -2.9790    -0.1320 ca         1 2J6       0.473200
      7 C1           4.0370    -2.1910    -0.3350 ca         1 2J6      -0.315300
      8 C3           2.6010    -0.2610    -0.1080 cp         1 2J6      -0.338800
      9 N7           0.2290    -0.7370     0.2020 nu         1 2J6      -0.881900
     10 C8          -0.8210    -1.6140     0.6950 c3         1 2J6       0.262100
     11 C11         -4.3760    -0.3920     1.2960 ca         1 2J6      -0.215000
     12 C12         -4.6930     0.0490     0.0280 ca         1 2J6       0.175900
     13 C13         -3.7980     0.0130    -1.0220 ca         1 2J6      -0.221000
     14 C14         -2.5260    -0.5040    -0.7970 ca         1 2J6       0.193100
     15 O15         -1.6710    -0.5380    -1.8350 oh         1 2J6      -0.505100
     16 F16         -5.9190     0.5480    -0.2010 f          1 2J6      -0.142900
     17 C17          2.4700     1.2080    -0.0720 cp         1 2J6       0.748500
     18 N18          1.3110     1.7430     0.3080 nb         1 2J6      -0.730000
     19 C19          1.2190     3.0660     0.3490 ca         1 2J6       0.457200
     20 C20          2.2790     3.8840     0.0120 ca         1 2J6      -0.376600
     21 C21          3.4450     3.2370    -0.3700 ca         1 2J6       0.457200
     22 N22          3.5430     1.9200    -0.4130 nb         1 2J6      -0.730000
     23 H2          -2.8240    -1.2560     2.4820 ha         1 2J6       0.133000
     24 H3           3.0010    -4.0600    -0.1230 h4         1 2J6       0.019100
     25 H4           5.0110    -2.6330    -0.4920 ha         1 2J6       0.148000
     26 H5           0.1640     0.2410     0.4740 hn         1 2J6       0.463800
     27 H6          -0.6890    -1.8430     1.7580 h1         1 2J6       0.062700
     28 H7          -0.7590    -2.5650     0.1630 h1         1 2J6       0.062700
     29 H8          -5.0950    -0.3390     2.1020 ha         1 2J6       0.152000
     30 H9          -4.0760     0.3830    -2.0010 ha         1 2J6       0.164000
     31 H10         -0.7650    -0.6320    -1.4880 ho         1 2J6       0.459000
     32 H11          0.2670     3.4770     0.6620 h4         1 2J6       0.027600
     33 H12          2.2050     4.9610     0.0410 ha         1 2J6       0.157000
     34 H13          4.3260     3.8010    -0.6530 h4         1 2J6       0.027600
     35 H1           4.7030    -0.1600    -0.4550 ha         1 2J6       0.158000
@<TRIPOS>BOND
     1     1     3 ar  
     2     1    10 1   
     3     1    14 ar  
     4     2     7 ar  
     5     2     8 ar  
     6     2    35 1   
     7     3    11 ar  
     8     3    23 1   
     9     4     5 ar  
    10     4     8 ar  
    11     4     9 1   
    12     5     6 ar  
    13     6     7 ar  
    14     6    24 1   
    15     7    25 1   
    16     8    17 1   
    17     9    10 1   
    18     9    26 1   
    19    10    27 1   
    20    10    28 1   
    21    11    12 ar  
    22    11    29 1   
    23    12    13 ar  
    24    12    16 1   
    25    13    14 ar  
    26    13    30 1   
    27    14    15 1   
    28    15    31 1   
    29    17    18 ar  
    30    17    22 ar  
    31    18    19 ar  
    32    19    20 ar  
    33    19    32 1   
    34    20    21 ar  
    35    20    33 1   
    36    21    22 ar  
    37    21    34 1   
@<TRIPOS>SUBSTRUCTURE
     1 2J6         1 TEMP              0 ****  ****    0 ROOT
