@<TRIPOS>MOLECULE
2J7
   42    44     1     0     0
SMALL
No Charge or Current Charge


@<TRIPOS>ATOM
      1 C7          -2.6350     0.3100    -1.0020 c3         1 2J7       0.258100
      2 N8          -2.3930    -1.0080    -0.3930 nu         1 2J7      -0.929100
      3 C9          -1.1550    -1.6070    -0.2410 ca         1 2J7       0.375900
      4 C2          -6.6560     1.7300    -0.1470 ca         1 2J7      -0.064000
      5 C10          0.0170    -0.8740    -0.0420 ca         1 2J7      -0.342000
      6 C4          -4.5620     0.7580     0.6140 ca         1 2J7       0.167100
      7 C6          -4.8680     1.2730    -1.7410 ca         1 2J7      -0.058500
      8 C1          -6.1630     1.7470    -1.4630 ca         1 2J7      -0.151000
      9 C3          -5.8510     1.2340     0.8930 ca         1 2J7      -0.152000
     10 C5          -4.0570     0.7720    -0.7020 ca         1 2J7      -0.209300
     11 C11          1.1990    -1.6000     0.1250 ca         1 2J7       0.375900
     12 N12          1.2220    -2.9390     0.0860 nb         1 2J7      -0.271500
     13 C13          0.0340    -3.5500    -0.1010 ca         1 2J7       0.191900
     14 N14         -1.1610    -2.9470    -0.2610 nb         1 2J7      -0.271500
     15 N15          2.4290    -0.9920     0.3030 nu         1 2J7      -0.929100
     16 C16          2.6540     0.3010     0.9690 c3         1 2J7       0.258100
     17 C17          4.0700     0.7940     0.6900 ca         1 2J7      -0.209300
     18 C18          4.8750     1.2590     1.7490 ca         1 2J7      -0.058500
     19 C19          6.1630     1.7620     1.4920 ca         1 2J7      -0.151000
     20 C20          6.6560     1.8090     0.1770 ca         1 2J7      -0.064000
     21 C21          5.8580     1.3490    -0.8830 ca         1 2J7      -0.152000
     22 C22          4.5740     0.8440    -0.6250 ca         1 2J7       0.167100
     23 O23          3.8120     0.3680    -1.6440 oh         1 2J7      -0.545100
     24 H1          -1.9440     1.0590    -0.5920 h1         1 2J7       0.051700
     25 H2          -2.4660     0.2620    -2.0870 h1         1 2J7       0.051700
     26 H3          -3.1190    -1.6990    -0.6000 hn         1 2J7       0.495000
     27 H4          -7.6570     2.0990     0.0660 ha         1 2J7       0.116000
     28 H5           0.0100     0.2080    -0.0190 ha         1 2J7       0.133000
     29 H6          -4.4960     1.3020    -2.7630 ha         1 2J7       0.111000
     30 H7          -6.7830     2.1320    -2.2690 ha         1 2J7       0.118000
     31 H8          -6.2300     1.2130     1.9120 ha         1 2J7       0.131000
     32 H9           0.0410    -4.6390    -0.1240 h5         1 2J7       0.048100
     33 H10          3.1640    -1.6820     0.4800 hn         1 2J7       0.495000
     34 H11          1.9530     1.0580     0.5920 h1         1 2J7       0.051700
     35 H12          2.4860     0.2030     2.0510 h1         1 2J7       0.051700
     36 H13          4.5020     1.2390     2.7720 ha         1 2J7       0.111000
     37 H14          6.7790     2.1190     2.3150 ha         1 2J7       0.118000
     38 H15          7.6530     2.1990    -0.0190 ha         1 2J7       0.116000
     39 H16          6.2360     1.3770    -1.9020 ha         1 2J7       0.131000
     40 H17          3.0960    -0.1480    -1.1860 ho         1 2J7       0.490000
     41 H18         -3.0710    -0.2380     1.1320 ho         1 2J7       0.490000
     42 O24         -3.7930     0.2480     1.6110 oh         1 2J7      -0.545100
@<TRIPOS>BOND
     1     1     2 1   
     2     1    10 1   
     3     1    24 1   
     4     1    25 1   
     5     2     3 1   
     6     2    26 1   
     7     3     5 ar  
     8     3    14 ar  
     9     4     8 ar  
    10     4     9 ar  
    11     4    27 1   
    12     5    11 ar  
    13     5    28 1   
    14     6     9 ar  
    15     6    10 ar  
    16     6    42 1   
    17     7     8 ar  
    18     7    10 ar  
    19     7    29 1   
    20     8    30 1   
    21     9    31 1   
    22    11    12 ar  
    23    11    15 1   
    24    12    13 ar  
    25    13    14 ar  
    26    13    32 1   
    27    15    16 1   
    28    15    33 1   
    29    16    17 1   
    30    16    34 1   
    31    16    35 1   
    32    17    18 ar  
    33    17    22 ar  
    34    18    19 ar  
    35    18    36 1   
    36    19    20 ar  
    37    19    37 1   
    38    20    21 ar  
    39    20    38 1   
    40    21    22 ar  
    41    21    39 1   
    42    22    23 1   
    43    23    40 1   
    44    41    42 1   
@<TRIPOS>SUBSTRUCTURE
     1 2J7         1 TEMP              0 ****  ****    0 ROOT
