@<TRIPOS>MOLECULE
2J7
   42    44     1     0     0
SMALL
bcc


@<TRIPOS>ATOM
      1 C7          -2.5650     0.4300    -0.5920 c3         1 2J7       0.258100
      2 N8          -2.3860    -0.9820    -0.2940 nu         1 2J7      -0.873900
      3 C9          -1.1540    -1.5600    -0.1940 ca         1 2J7       0.704200
      4 C2          -6.6720     1.6250    -0.2530 ca         1 2J7      -0.082000
      5 C10          0.0170    -0.8220    -0.0380 ca         1 2J7      -0.490600
      6 C4          -4.7390     0.5350     0.6830 ca         1 2J7       0.167100
      7 C6          -4.6500     1.4800    -1.5250 ca         1 2J7      -0.076500
      8 C1          -5.9700     1.8940    -1.4200 ca         1 2J7      -0.169000
      9 C3          -6.0660     0.9440     0.7920 ca         1 2J7      -0.170000
     10 C5          -4.0150     0.8110    -0.4850 ca         1 2J7      -0.209300
     11 C11          1.1970    -1.5520     0.0860 ca         1 2J7       0.704200
     12 N12          1.2050    -2.8920     0.0640 nb         1 2J7      -0.797500
     13 C13          0.0330    -3.4760    -0.0950 ca         1 2J7       0.717900
     14 N14         -1.1450    -2.9000    -0.2300 nb         1 2J7      -0.797500
     15 N15          2.4220    -0.9640     0.2100 nu         1 2J7      -0.873900
     16 C16          2.5830     0.4370     0.5650 c3         1 2J7       0.258100
     17 C17          4.0280     0.8400     0.4740 ca         1 2J7      -0.209300
     18 C18          4.6590     1.4640     1.5440 ca         1 2J7      -0.076500
     19 C19          5.9730     1.9010     1.4560 ca         1 2J7      -0.169000
     20 C20          6.6730     1.7030     0.2730 ca         1 2J7      -0.082000
     21 C21          6.0710     1.0660    -0.8020 ca         1 2J7      -0.170000
     22 C22          4.7520     0.6310    -0.7080 ca         1 2J7       0.167100
     23 O23          4.2060     0.0310    -1.7860 oh         1 2J7      -0.506100
     24 H1          -1.9830     1.0120     0.1280 h1         1 2J7       0.051700
     25 H2          -2.1830     0.6840    -1.5860 h1         1 2J7       0.051700
     26 H3          -3.0790    -1.5980    -0.7000 hn         1 2J7       0.439800
     27 H4          -7.7040     1.9380    -0.1520 ha         1 2J7       0.134000
     28 H5           0.0100     0.2560    -0.0140 ha         1 2J7       0.151000
     29 H6          -4.0920     1.6860    -2.4300 ha         1 2J7       0.129000
     30 H7          -6.4440     2.4170    -2.2390 ha         1 2J7       0.136000
     31 H8          -6.6160     0.7230     1.6980 ha         1 2J7       0.149000
     32 H9           0.0400    -4.5610    -0.1180 h5         1 2J7       0.048100
     33 H10          3.1230    -1.5870     0.5880 hn         1 2J7       0.439800
     34 H11          1.9950     1.0400    -0.1320 h1         1 2J7       0.051700
     35 H12          2.2000     0.6470     1.5680 h1         1 2J7       0.051700
     36 H13          4.1010     1.6150     2.4610 ha         1 2J7       0.129000
     37 H14          6.4420     2.3890     2.2990 ha         1 2J7       0.136000
     38 H15          7.6980     2.0370     0.1840 ha         1 2J7       0.134000
     39 H16          6.6200     0.9010    -1.7210 ha         1 2J7       0.149000
     40 H17          3.4150    -0.4640    -1.5190 ho         1 2J7       0.451000
     41 H18         -3.3870    -0.5730     1.4470 ho         1 2J7       0.451000
     42 O24         -4.1880    -0.1050     1.7340 oh         1 2J7      -0.506100
@<TRIPOS>BOND
     1     1     2 1   
     2     1    10 1   
     3     1    24 1   
     4     1    25 1   
     5     2     3 1   
     6     2    26 1   
     7     3     5 ar  
     8     3    14 ar  
     9     4     8 ar  
    10     4     9 ar  
    11     4    27 1   
    12     5    11 ar  
    13     5    28 1   
    14     6     9 ar  
    15     6    10 ar  
    16     6    42 1   
    17     7     8 ar  
    18     7    10 ar  
    19     7    29 1   
    20     8    30 1   
    21     9    31 1   
    22    11    12 ar  
    23    11    15 1   
    24    12    13 ar  
    25    13    14 ar  
    26    13    32 1   
    27    15    16 1   
    28    15    33 1   
    29    16    17 1   
    30    16    34 1   
    31    16    35 1   
    32    17    18 ar  
    33    17    22 ar  
    34    18    19 ar  
    35    18    36 1   
    36    19    20 ar  
    37    19    37 1   
    38    20    21 ar  
    39    20    38 1   
    40    21    22 ar  
    41    21    39 1   
    42    22    23 1   
    43    23    40 1   
    44    41    42 1   
@<TRIPOS>SUBSTRUCTURE
     1 2J7         1 TEMP              0 ****  ****    0 ROOT
