@<TRIPOS>MOLECULE
2J8
   66    69     1     0     0
SMALL
No Charge or Current Charge


@<TRIPOS>ATOM
      1 SE1         -2.0020     4.5490    -1.1130 ss         1 2J8      -0.202067
      2 SE2          5.1070    -0.6380    -0.9050 ss         1 2J8      -0.202067
      3 SE3         -2.9740    -4.0200    -1.3140 ss         1 2J8      -0.202067
      4 C01         -3.1620    -1.5000    -0.7440 cc         1 2J8       0.216833
      5 C02         -3.7170    -0.1050    -0.6740 c          1 2J8       0.534933
      6 N03         -2.8530     0.7720    -0.0550 ns         1 2J8      -0.486567
      7 C04         -3.0650     2.2210     0.1510 c3         1 2J8       0.082733
      8 C05         -1.8430     3.0160    -0.2920 cc         1 2J8       0.533700
      9 C07         -0.2620     4.6160    -1.1950 cc         1 2J8      -0.089667
     10 C08          0.3170     3.4880    -0.6550 cd         1 2J8       0.216833
     11 C09          1.8130     3.3170    -0.6660 c          1 2J8       0.534933
     12 N10          2.1870     2.0970    -0.1490 ns         1 2J8      -0.486567
     13 C11          3.5670     1.5900    -0.0050 c3         1 2J8       0.082733
     14 C12          3.6490     0.0910    -0.2790 cc         1 2J8       0.533700
     15 C14          4.2650    -2.1630    -0.9270 cc         1 2J8      -0.089667
     16 C15          2.9550    -2.0280    -0.5210 cd         1 2J8       0.216833
     17 C16          2.0380    -3.2230    -0.5200 c          1 2J8       0.534933
     18 N17          0.7520    -2.8910    -0.1530 ns         1 2J8      -0.486567
     19 C18         -0.3910    -3.8230    -0.0540 c3         1 2J8       0.082733
     20 C19         -1.7070    -3.1560    -0.4460 cd         1 2J8       0.533700
     21 C21         -3.8740    -2.5110    -1.3460 cd         1 2J8      -0.089667
     22 N22         -1.9250    -1.8610    -0.2350 nc         1 2J8      -0.661000
     23 N23          2.6060    -0.7240    -0.1500 nd         1 2J8      -0.661000
     24 N24         -0.6020     2.5700    -0.1340 nd         1 2J8      -0.661000
     25 O26          2.6230     4.1340    -1.0880 o          1 2J8      -0.603767
     26 O27          2.3610    -4.3660    -0.8210 o          1 2J8      -0.603767
     27 C28         -3.4880     2.5120     1.6280 c3         1 2J8      -0.071700
     28 C29         -3.7350     4.0180     1.8940 c3         1 2J8      -0.090600
     29 C30         -4.7230     1.6860     2.0740 c3         1 2J8      -0.090600
     30 C31          4.1490     2.0270     1.3770 c3         1 2J8      -0.071700
     31 C32          3.3890     1.4110     2.5800 c3         1 2J8      -0.090600
     32 C33          5.6710     1.7820     1.4990 c3         1 2J8      -0.090600
     33 C34         -0.4190    -4.5090     1.3470 c3         1 2J8      -0.071700
     34 C35         -0.6100    -3.5090     2.5160 c3         1 2J8      -0.090600
     35 C36         -1.4500    -5.6600     1.4270 c3         1 2J8      -0.090600
     36 HN03        -1.9680     0.3680     0.2400 hn         1 2J8       0.350500
     37 H04         -3.8910     2.5380    -0.4990 h1         1 2J8       0.096033
     38 H07          0.2280     5.4650    -1.6550 h4         1 2J8       0.180667
     39 HN10         1.4210     1.4920     0.1360 hn         1 2J8       0.350500
     40 H11          4.1720     2.0720    -0.7830 h1         1 2J8       0.096033
     41 H14          4.7740    -3.0590    -1.2610 h4         1 2J8       0.180667
     42 HN17         0.5920    -1.9080     0.0500 hn         1 2J8       0.350500
     43 H18         -0.2260    -4.6140    -0.7990 h1         1 2J8       0.096033
     44 H21         -4.8520    -2.4500    -1.8080 h4         1 2J8       0.180667
     45 H28         -2.6530     2.2080     2.2730 hc         1 2J8       0.063033
     46 H29         -4.5060     4.4140     1.2210 hc         1 2J8       0.039533
     47 H29A        -4.0680     4.1810     2.9260 hc         1 2J8       0.039533
     48 H29B        -2.8180     4.6030     1.7550 hc         1 2J8       0.039533
     49 H30         -5.5830     1.8910     1.4260 hc         1 2J8       0.039533
     50 H30A        -4.5160     0.6100     2.0450 hc         1 2J8       0.039533
     51 H30B        -5.0050     1.9350     3.1040 hc         1 2J8       0.039533
     52 H31          4.0120     3.1140     1.4420 hc         1 2J8       0.063033
     53 H32          3.4890     0.3190     2.5930 hc         1 2J8       0.039533
     54 H32A         3.7880     1.7990     3.5250 hc         1 2J8       0.039533
     55 H32B         2.3220     1.6590     2.5430 hc         1 2J8       0.039533
     56 H33          6.2050     2.1970     0.6360 hc         1 2J8       0.039533
     57 H33A         6.0650     2.2650     2.4010 hc         1 2J8       0.039533
     58 H33B         5.8990     0.7110     1.5680 hc         1 2J8       0.039533
     59 H34          0.5670    -4.9720     1.4880 hc         1 2J8       0.063033
     60 H35         -1.5880    -3.0160     2.4590 hc         1 2J8       0.039533
     61 H35A        -0.5500    -4.0290     3.4800 hc         1 2J8       0.039533
     62 H35B         0.1660    -2.7350     2.5070 hc         1 2J8       0.039533
     63 H36         -1.3100    -6.3680     0.6010 hc         1 2J8       0.039533
     64 H36A        -1.3350    -6.2140     2.3670 hc         1 2J8       0.039533
     65 H36B        -2.4770    -5.2780     1.3870 hc         1 2J8       0.039533
     66 O25         -4.8040     0.2490    -1.1160 o          1 2J8      -0.603767
@<TRIPOS>BOND
     1     1     8 1   
     2     1     9 1   
     3     2    14 1   
     4     2    15 1   
     5     3    20 1   
     6     3    21 1   
     7     4     5 1   
     8     4    21 2   
     9     4    22 1   
    10     5     6 1   
    11     5    66 2   
    12     6     7 1   
    13     6    36 1   
    14     7     8 1   
    15     7    27 1   
    16     7    37 1   
    17     8    24 2   
    18     9    10 2   
    19     9    38 1   
    20    10    11 1   
    21    10    24 1   
    22    11    12 1   
    23    11    25 2   
    24    12    13 1   
    25    12    39 1   
    26    13    14 1   
    27    13    30 1   
    28    13    40 1   
    29    14    23 2   
    30    15    16 2   
    31    15    41 1   
    32    16    17 1   
    33    16    23 1   
    34    17    18 1   
    35    17    26 2   
    36    18    19 1   
    37    18    42 1   
    38    19    20 1   
    39    19    33 1   
    40    19    43 1   
    41    20    22 2   
    42    21    44 1   
    43    27    28 1   
    44    27    29 1   
    45    27    45 1   
    46    28    46 1   
    47    28    47 1   
    48    28    48 1   
    49    29    49 1   
    50    29    50 1   
    51    29    51 1   
    52    30    31 1   
    53    30    32 1   
    54    30    52 1   
    55    31    53 1   
    56    31    54 1   
    57    31    55 1   
    58    32    56 1   
    59    32    57 1   
    60    32    58 1   
    61    33    34 1   
    62    33    35 1   
    63    33    59 1   
    64    34    60 1   
    65    34    61 1   
    66    34    62 1   
    67    35    63 1   
    68    35    64 1   
    69    35    65 1   
@<TRIPOS>SUBSTRUCTURE
     1 2J8         1 TEMP              0 ****  ****    0 ROOT
