@<TRIPOS>MOLECULE
2J8
   66    69     1     0     0
SMALL
abcg2


@<TRIPOS>ATOM
      1 SE1         -2.1510     4.4290    -1.4130 ss         1 2J8      -0.202067
      2 SE2          5.1490    -0.5230    -1.0380 ss         1 2J8      -0.202067
      3 SE3         -2.8140    -4.0400    -1.5630 ss         1 2J8      -0.202067
      4 C01         -3.0670    -1.4990    -0.9330 cc         1 2J8       0.216833
      5 C02         -3.5620    -0.1060    -0.7810 c          1 2J8       0.534933
      6 N03         -2.7370     0.6800    -0.0710 ns         1 2J8      -0.486567
      7 C04         -2.9760     2.0710     0.2230 c3         1 2J8       0.082733
      8 C05         -1.8730     2.8820    -0.4050 cc         1 2J8       0.533700
      9 C07         -0.3180     4.4910    -1.5440 cc         1 2J8      -0.089667
     10 C08          0.2270     3.4330    -0.8890 cd         1 2J8       0.216833
     11 C09          1.6920     3.1960    -0.8080 c          1 2J8       0.534933
     12 N10          2.0210     2.0110    -0.2700 ns         1 2J8      -0.486567
     13 C11          3.3760     1.6130     0.0160 c3         1 2J8       0.082733
     14 C12          3.5460     0.1680    -0.3630 cc         1 2J8       0.533700
     15 C14          4.2650    -2.1320    -1.0730 cc         1 2J8      -0.089667
     16 C15          2.9910    -1.9710    -0.6300 cd         1 2J8       0.216833
     17 C16          2.0280    -3.1000    -0.5510 c          1 2J8       0.534933
     18 N17          0.7840    -2.7450    -0.1940 ns         1 2J8      -0.486567
     19 C18         -0.2880    -3.6990    -0.0290 c3         1 2J8       0.082733
     20 C19         -1.5520    -3.0890    -0.5650 cd         1 2J8       0.533700
     21 C21         -3.7540    -2.4610    -1.6030 cd         1 2J8      -0.089667
     22 N22         -1.8690    -1.8560    -0.3780 nc         1 2J8      -0.661000
     23 N23          2.6130    -0.7110    -0.2510 nd         1 2J8      -0.661000
     24 N24         -0.6330     2.5650    -0.2750 nd         1 2J8      -0.661000
     25 O26          2.4980     4.0250    -1.2060 o          1 2J8      -0.603767
     26 O27          2.3720    -4.2470    -0.8020 o          1 2J8      -0.603767
     27 C28         -3.0560     2.3100     1.7460 c3         1 2J8      -0.071700
     28 C29         -3.2550     3.7880     2.0670 c3         1 2J8      -0.090600
     29 C30         -4.1790     1.4780     2.3530 c3         1 2J8      -0.090600
     30 C31          3.7400     1.9070     1.4940 c3         1 2J8      -0.071700
     31 C32          2.8250     1.1960     2.4820 c3         1 2J8      -0.090600
     32 C33          5.2040     1.6120     1.7980 c3         1 2J8      -0.090600
     33 C34         -0.4160    -4.1680     1.4410 c3         1 2J8      -0.071700
     34 C35         -0.6790    -3.0280     2.4150 c3         1 2J8      -0.090600
     35 C36         -1.4520    -5.2760     1.5880 c3         1 2J8      -0.090600
     36 HN03        -1.8710     0.2720     0.2490 hn         1 2J8       0.350500
     37 H04         -3.9370     2.3440    -0.2200 h1         1 2J8       0.096033
     38 H07          0.2130     5.2670    -2.0760 h4         1 2J8       0.180667
     39 HN10         1.2700     1.4040     0.0240 hn         1 2J8       0.350500
     40 H11          4.0350     2.2200    -0.6080 h1         1 2J8       0.096033
     41 H14          4.7210    -3.0530    -1.4050 h4         1 2J8       0.180667
     42 HN17         0.5990    -1.7690    -0.0200 hn         1 2J8       0.350500
     43 H18         -0.0360    -4.5780    -0.6260 h1         1 2J8       0.096033
     44 H21         -4.7090    -2.3510    -2.0950 h4         1 2J8       0.180667
     45 H28         -2.1020     1.9860     2.1790 hc         1 2J8       0.063033
     46 H29         -4.1390     4.1840     1.5610 hc         1 2J8       0.039533
     47 H29A        -3.4030     3.9210     3.1390 hc         1 2J8       0.039533
     48 H29B        -2.4000     4.3990     1.7790 hc         1 2J8       0.039533
     49 H30         -5.1490     1.7780     1.9510 hc         1 2J8       0.039533
     50 H30A        -4.0520     0.4120     2.1670 hc         1 2J8       0.039533
     51 H30B        -4.2090     1.6210     3.4340 hc         1 2J8       0.039533
     52 H31          3.5910     2.9870     1.5990 hc         1 2J8       0.063033
     53 H32          2.9400     0.1120     2.4280 hc         1 2J8       0.039533
     54 H32A         3.0700     1.5000     3.5000 hc         1 2J8       0.039533
     55 H32B         1.7730     1.4320     2.3220 hc         1 2J8       0.039533
     56 H33          5.8730     2.0420     1.0500 hc         1 2J8       0.039533
     57 H33A         5.4770     2.0410     2.7630 hc         1 2J8       0.039533
     58 H33B         5.4000     0.5400     1.8550 hc         1 2J8       0.039533
     59 H34          0.5640    -4.5960     1.6760 hc         1 2J8       0.063033
     60 H35         -1.6510    -2.5640     2.2440 hc         1 2J8       0.039533
     61 H35A        -0.6710    -3.4070     3.4380 hc         1 2J8       0.039533
     62 H35B         0.0820    -2.2500     2.3530 hc         1 2J8       0.039533
     63 H36         -1.2990    -6.0730     0.8580 hc         1 2J8       0.039533
     64 H36A        -1.3850    -5.7230     2.5800 hc         1 2J8       0.039533
     65 H36B        -2.4710    -4.9010     1.4720 hc         1 2J8       0.039533
     66 O25         -4.6270     0.2540    -1.2600 o          1 2J8      -0.603767
@<TRIPOS>BOND
     1     1     8 1   
     2     1     9 1   
     3     2    14 1   
     4     2    15 1   
     5     3    20 1   
     6     3    21 1   
     7     4     5 1   
     8     4    21 2   
     9     4    22 1   
    10     5     6 1   
    11     5    66 2   
    12     6     7 1   
    13     6    36 1   
    14     7     8 1   
    15     7    27 1   
    16     7    37 1   
    17     8    24 2   
    18     9    10 2   
    19     9    38 1   
    20    10    11 1   
    21    10    24 1   
    22    11    12 1   
    23    11    25 2   
    24    12    13 1   
    25    12    39 1   
    26    13    14 1   
    27    13    30 1   
    28    13    40 1   
    29    14    23 2   
    30    15    16 2   
    31    15    41 1   
    32    16    17 1   
    33    16    23 1   
    34    17    18 1   
    35    17    26 2   
    36    18    19 1   
    37    18    42 1   
    38    19    20 1   
    39    19    33 1   
    40    19    43 1   
    41    20    22 2   
    42    21    44 1   
    43    27    28 1   
    44    27    29 1   
    45    27    45 1   
    46    28    46 1   
    47    28    47 1   
    48    28    48 1   
    49    29    49 1   
    50    29    50 1   
    51    29    51 1   
    52    30    31 1   
    53    30    32 1   
    54    30    52 1   
    55    31    53 1   
    56    31    54 1   
    57    31    55 1   
    58    32    56 1   
    59    32    57 1   
    60    32    58 1   
    61    33    34 1   
    62    33    35 1   
    63    33    59 1   
    64    34    60 1   
    65    34    61 1   
    66    34    62 1   
    67    35    63 1   
    68    35    64 1   
    69    35    65 1   
@<TRIPOS>SUBSTRUCTURE
     1 2J8         1 TEMP              0 ****  ****    0 ROOT
