@<TRIPOS>MOLECULE
2J9
   27    29     1     0     0
SMALL
abcg2


@<TRIPOS>ATOM
      1 CAG         -3.2070    -1.8820    -0.6120 cx         1 2J9      -0.124900
      2 CAH         -4.0130    -0.7160    -0.1400 cx         1 2J9      -0.124900
      3 CAN         -2.7090    -1.0360     0.5200 cx         1 2J9       0.147500
      4 NAO         -1.6130    -0.1500     0.2860 nh         1 2J9      -0.829400
      5 CAI         -1.7670     1.2190     0.7280 c6         1 2J9       0.459000
      6 NAJ         -1.0190     2.1400    -0.1050 n7         1 2J9      -0.838300
      7 SAP          0.6140     1.9420     0.0380 sy         1 2J9       1.149600
      8 OAA          1.0070     2.4000     1.3600 o          1 2J9      -0.525500
      9 OAB          1.2460     2.5440    -1.1220 o          1 2J9      -0.525500
     10 CAM          0.7830     0.1890    -0.0130 ca         1 2J9      -0.349500
     11 CAL         -0.3390    -0.6500     0.1380 ca         1 2J9       0.387000
     12 CAE         -0.0880    -2.0330     0.1090 ca         1 2J9      -0.163000
     13 CAD          1.1840    -2.5360    -0.0780 ca         1 2J9      -0.063000
     14 CAK          2.2510    -1.6690    -0.2350 ca         1 2J9       0.116000
     15 FAC          3.4860    -2.1670    -0.4160 f          1 2J9      -0.175000
     16 CAF          2.0680    -0.3090    -0.2040 ca         1 2J9      -0.017000
     17 H1          -3.5450    -2.8820    -0.3750 hc         1 2J9       0.082950
     18 H2          -2.7000    -1.7880    -1.5640 hc         1 2J9       0.082950
     19 H3          -4.0520     0.1560    -0.7810 hc         1 2J9       0.082950
     20 H4          -4.9160    -0.8990     0.4270 hc         1 2J9       0.082950
     21 H5          -2.7580    -1.4750     1.5140 h1         1 2J9       0.084700
     22 H6          -2.8180     1.4890     0.6710 h2         1 2J9       0.084700
     23 H7          -1.4470     1.3550     1.7660 h2         1 2J9       0.084700
     24 H8          -1.3120     2.1290    -1.0790 hn         1 2J9       0.487000
     25 H9          -0.9010    -2.7320     0.2370 ha         1 2J9       0.124000
     26 H10          1.3430    -3.6060    -0.0920 ha         1 2J9       0.133000
     27 H11          2.9120     0.3580    -0.3280 ha         1 2J9       0.146000
@<TRIPOS>BOND
     1     1     2 1   
     2     1     3 1   
     3     1    17 1   
     4     1    18 1   
     5     2     3 1   
     6     2    19 1   
     7     2    20 1   
     8     3     4 1   
     9     3    21 1   
    10     4     5 1   
    11     4    11 1   
    12     5     6 1   
    13     5    22 1   
    14     5    23 1   
    15     6     7 1   
    16     6    24 1   
    17     7     8 2   
    18     7     9 2   
    19     7    10 1   
    20    10    11 ar  
    21    10    16 ar  
    22    11    12 ar  
    23    12    13 ar  
    24    12    25 1   
    25    13    14 ar  
    26    13    26 1   
    27    14    15 1   
    28    14    16 ar  
    29    16    27 1   
@<TRIPOS>SUBSTRUCTURE
     1 2J9         1 TEMP              0 ****  ****    0 ROOT
