@<TRIPOS>MOLECULE
2J9
   27    29     1     0     0
SMALL
No Charge or Current Charge


@<TRIPOS>ATOM
      1 CAG         -3.1140    -1.7270    -0.8540 cx         1 2J9      -0.124900
      2 CAH         -3.9400    -0.5260    -0.4670 cx         1 2J9      -0.124900
      3 CAN         -2.8120    -0.9830     0.4230 cx         1 2J9       0.147500
      4 NAO         -1.5890    -0.1700     0.5420 nh         1 2J9      -0.829400
      5 CAI         -1.6070     1.1250     1.2000 c6         1 2J9       0.459000
      6 NAJ         -1.2390     2.0150     0.1510 n7         1 2J9      -0.838300
      7 SAP          0.3820     1.9260    -0.1740 sy         1 2J9       1.149600
      8 OAA          1.0710     2.6440     0.9010 o          1 2J9      -0.525500
      9 OAB          0.5300     2.3370    -1.5710 o          1 2J9      -0.525500
     10 CAM          0.7320     0.1930    -0.0520 ca         1 2J9      -0.349500
     11 CAL         -0.3030    -0.6840     0.2810 ca         1 2J9       0.387000
     12 CAE         -0.0330    -2.0660     0.3510 ca         1 2J9      -0.163000
     13 CAD          1.2600    -2.5580     0.0910 ca         1 2J9      -0.063000
     14 CAK          2.2910    -1.6660    -0.2410 ca         1 2J9       0.116000
     15 FAC          3.5330    -2.1350    -0.4920 f          1 2J9      -0.175000
     16 CAF          2.0320    -0.2890    -0.3150 ca         1 2J9      -0.017000
     17 H1          -3.5710    -2.7100    -0.7650 hc         1 2J9       0.082950
     18 H2          -2.4180    -1.6190    -1.6820 hc         1 2J9       0.082950
     19 H3          -3.8010     0.3880    -1.0390 hc         1 2J9       0.082950
     20 H4          -4.9550    -0.6970    -0.1190 hc         1 2J9       0.082950
     21 H5          -3.1020    -1.4720     1.3560 h1         1 2J9       0.084700
     22 H6          -2.6280     1.3580     1.5440 h2         1 2J9       0.084700
     23 H7          -0.9090     1.1740     2.0540 h2         1 2J9       0.084700
     24 H8          -1.5990     1.5280    -0.6610 hn         1 2J9       0.487000
     25 H9          -0.8200    -2.7630     0.6190 ha         1 2J9       0.124000
     26 H10          1.4620    -3.6250     0.1500 ha         1 2J9       0.133000
     27 H11          2.8380     0.3940    -0.5800 ha         1 2J9       0.146000
@<TRIPOS>BOND
     1     1     2 1   
     2     1     3 1   
     3     1    17 1   
     4     1    18 1   
     5     2     3 1   
     6     2    19 1   
     7     2    20 1   
     8     3     4 1   
     9     3    21 1   
    10     4     5 1   
    11     4    11 1   
    12     5     6 1   
    13     5    22 1   
    14     5    23 1   
    15     6     7 1   
    16     6    24 1   
    17     7     8 2   
    18     7     9 2   
    19     7    10 1   
    20    10    11 ar  
    21    10    16 ar  
    22    11    12 ar  
    23    12    13 ar  
    24    12    25 1   
    25    13    14 ar  
    26    13    26 1   
    27    14    15 1   
    28    14    16 ar  
    29    16    27 1   
@<TRIPOS>SUBSTRUCTURE
     1 2J9         1 TEMP              0 ****  ****    0 ROOT
