@<TRIPOS>MOLECULE
2JC
   15    14     1     0     0
SMALL
No Charge or Current Charge


@<TRIPOS>ATOM
      1 N           52.6080     1.2430    23.6220 n7         1 2JC      -0.857400
      2 CA          51.6470     1.6680    24.6980 c3         1 2JC       0.015800
      3 C           50.2460     0.9440    24.6840 c          1 2JC       0.720000
      4 O           49.9470     0.2270    25.6310 o          1 2JC      -0.737500
      5 C1          53.8030     3.3710    23.1140 c3         1 2JC      -0.129100
      6 C3          53.9220     1.9140    23.6020 c3         1 2JC       0.168800
      7 O1          49.5180     1.1070    23.7120 o          1 2JC      -0.737500
      8 H1          52.1560     1.3830    22.7070 hn         1 2JC       0.428000
      9 H3          52.1040     1.5040    25.6840 h1         1 2JC       0.007700
     10 H4          51.4450     2.7450    24.6160 h1         1 2JC       0.007700
     11 H5          54.8000     3.8210    23.0330 hc         1 2JC       0.022367
     12 H6          53.3300     3.4160    22.1250 hc         1 2JC       0.022367
     13 H7          54.5950     1.3790    22.9180 h1         1 2JC       0.023200
     14 H8          54.3840     1.8960    24.5990 h1         1 2JC       0.023200
     15 H2          53.2170     3.9800    23.8120 hc         1 2JC       0.022367
@<TRIPOS>BOND
     1     1     2 1   
     2     1     6 1   
     3     1     8 1   
     4     2     3 1   
     5     2     9 1   
     6     2    10 1   
     7     3     4 1   
     8     3     7 1   
     9     5     6 1   
    10     5    11 1   
    11     5    12 1   
    12     5    15 1   
    13     6    13 1   
    14     6    14 1   
@<TRIPOS>SUBSTRUCTURE
     1 2JC         1 TEMP              0 ****  ****    0 ROOT
