@<TRIPOS>MOLECULE
2JC
   15    14     1     0     0
SMALL
bcc


@<TRIPOS>ATOM
      1 N           52.5940     1.1990    23.6210 n7         1 2JC      -0.802200
      2 CA          51.7320     1.6010    24.7120 c3         1 2JC       0.015800
      3 C           50.3190     0.9860    24.6220 c          1 2JC       0.930600
      4 O           49.6600     0.9920    25.6800 o          1 2JC      -0.842800
      5 C1          53.7470     3.4130    23.1860 c3         1 2JC      -0.129100
      6 C3          53.8430     1.9250    23.5210 c3         1 2JC       0.168800
      7 O1          49.9460     0.5810    23.5040 o          1 2JC      -0.842800
      8 H1          52.0720     1.2700    22.7570 hn         1 2JC       0.372800
      9 H3          52.1910     1.3040    25.6610 h1         1 2JC       0.007700
     10 H4          51.5900     2.6930    24.7830 h1         1 2JC       0.007700
     11 H5          54.7410     3.8570    23.1180 hc         1 2JC       0.022367
     12 H6          53.2510     3.5660    22.2250 hc         1 2JC       0.022367
     13 H7          54.4580     1.4360    22.7610 h1         1 2JC       0.023200
     14 H8          54.3840     1.8040    24.4650 h1         1 2JC       0.023200
     15 H2          53.1920     3.9710    23.9410 hc         1 2JC       0.022367
@<TRIPOS>BOND
     1     1     2 1   
     2     1     6 1   
     3     1     8 1   
     4     2     3 1   
     5     2     9 1   
     6     2    10 1   
     7     3     4 1   
     8     3     7 1   
     9     5     6 1   
    10     5    11 1   
    11     5    12 1   
    12     5    15 1   
    13     6    13 1   
    14     6    14 1   
@<TRIPOS>SUBSTRUCTURE
     1 2JC         1 TEMP              0 ****  ****    0 ROOT
