@<TRIPOS>MOLECULE
2JE
   20    20     1     0     0
SMALL
No Charge or Current Charge


@<TRIPOS>ATOM
      1 C4           2.8190     1.0280    -0.0400 cc         1 2JE      -0.144000
      2 N3           3.9450     0.2290    -0.0150 na         1 2JE      -0.299500
      3 C2           3.5390    -1.0810     0.0210 cc         1 2JE       0.389400
      4 N4           2.2170    -1.1520     0.0200 nd         1 2JE      -0.628000
      5 C5           1.7510     0.1610    -0.0180 cd         1 2JE       0.151500
      6 O6           0.0280     1.8590    -0.0690 o          1 2JE      -0.531100
      7 C22          0.3330     0.6710    -0.0350 c          1 2JE       0.545200
      8 S1          -0.9190    -0.6590    -0.0000 ss         1 2JE      -0.308600
      9 C11         -2.4720     0.3490    -0.0330 c3         1 2JE       0.045600
     10 C12         -3.7170    -0.5650    -0.0130 c3         1 2JE       0.158800
     11 N1          -4.9800     0.2060    -0.0450 n8         1 2JE      -0.996200
     12 H1           2.8520     2.1120    -0.0700 h4         1 2JE       0.174000
     13 H2           4.9110     0.5370    -0.0210 hn         1 2JE       0.357000
     14 H3           4.2360    -1.9110     0.0460 h5         1 2JE       0.062100
     15 H5          -2.4850     1.0140     0.8400 h1         1 2JE       0.078200
     16 H6          -2.4820     0.9640    -0.9410 h1         1 2JE       0.078200
     17 H7          -3.6900    -1.2310    -0.8870 h1         1 2JE       0.039700
     18 H8          -3.7020    -1.1860     0.8940 h1         1 2JE       0.039700
     19 H9          -5.7720    -0.4480    -0.0010 hn         1 2JE       0.394000
     20 H4          -5.0690     0.7450     0.8260 hn         1 2JE       0.394000
@<TRIPOS>BOND
     1     1     2 1   
     2     1     5 2   
     3     1    12 1   
     4     2     3 1   
     5     2    13 1   
     6     3     4 2   
     7     3    14 1   
     8     4     5 1   
     9     5     7 1   
    10     6     7 2   
    11     7     8 1   
    12     8     9 1   
    13     9    10 1   
    14     9    15 1   
    15     9    16 1   
    16    10    11 1   
    17    10    17 1   
    18    10    18 1   
    19    11    19 1   
    20    11    20 1   
@<TRIPOS>SUBSTRUCTURE
     1 2JE         1 TEMP              0 ****  ****    0 ROOT
