@<TRIPOS>MOLECULE
2JE
   20    20     1     0     0
SMALL
bcc


@<TRIPOS>ATOM
      1 C4           2.8170     1.0510    -0.0590 cc         1 2JE      -0.176600
      2 N3           3.8380     0.1680    -0.0160 na         1 2JE      -0.299900
      3 C2           3.3120    -1.0800     0.0420 cc         1 2JE       0.389400
      4 N4           2.0100    -1.0470     0.0390 nd         1 2JE      -0.628000
      5 C5           1.6820     0.2780    -0.0240 cd         1 2JE       0.216800
      6 O6           0.0000     1.9230    -0.0920 o          1 2JE      -0.531100
      7 C22          0.3050     0.7540    -0.0450 c          1 2JE       0.545200
      8 S1          -0.8820    -0.5580     0.0060 ss         1 2JE      -0.260700
      9 C11         -2.4300     0.3870    -0.0290 c3         1 2JE      -0.002300
     10 C12         -3.5960    -0.5930     0.0130 c3         1 2JE       0.158800
     11 N1          -4.8440     0.1510    -0.0090 n8         1 2JE      -0.885800
     12 H1           2.9670     2.1160    -0.1080 h4         1 2JE       0.192000
     13 H2           4.8210     0.3960    -0.0260 hn         1 2JE       0.306700
     14 H3           3.9280    -1.9640     0.0840 h5         1 2JE       0.062100
     15 H5          -2.4610     1.0540     0.8340 h1         1 2JE       0.078200
     16 H6          -2.4750     0.9890    -0.9350 h1         1 2JE       0.078200
     17 H7          -3.5600    -1.2320    -0.8720 h1         1 2JE       0.039700
     18 H8          -3.4880    -1.2530     0.8840 h1         1 2JE       0.039700
     19 H9          -5.6160    -0.4940    -0.1170 hn         1 2JE       0.338800
     20 H4          -4.9850     0.5970     0.8890 hn         1 2JE       0.338800
@<TRIPOS>BOND
     1     1     2 1   
     2     1     5 2   
     3     1    12 1   
     4     2     3 1   
     5     2    13 1   
     6     3     4 2   
     7     3    14 1   
     8     4     5 1   
     9     5     7 1   
    10     6     7 2   
    11     7     8 1   
    12     8     9 1   
    13     9    10 1   
    14     9    15 1   
    15     9    16 1   
    16    10    11 1   
    17    10    17 1   
    18    10    18 1   
    19    11    19 1   
    20    11    20 1   
@<TRIPOS>SUBSTRUCTURE
     1 2JE         1 TEMP              0 ****  ****    0 ROOT
