@<TRIPOS>MOLECULE
2JF
   44    43     1     0     0
SMALL
bcc


@<TRIPOS>ATOM
      1 N           80.0230    15.7300   -11.9730 n8         1 2JF      -0.880800
      2 CA          78.6210    15.5570   -12.3080 c3         1 2JF       0.031500
      3 CB          78.2550    16.2510   -13.6100 c3         1 2JF       0.159400
      4 OG          78.3860    17.6650   -13.4770 os         1 2JF      -0.411900
      5 C8          79.4680    18.2780   -13.9480 c          1 2JF       0.660100
      6 O18         80.3860    17.7150   -14.4870 o          1 2JF      -0.542000
      7 C9          79.3720    19.7740   -13.7900 c3         1 2JF      -0.133400
      8 C10         80.7200    20.4400   -13.5520 c3         1 2JF      -0.087400
      9 C11         81.3060    20.1740   -12.1680 c3         1 2JF       0.094000
     10 N12         80.5110    20.7560   -11.1070 ns         1 2JF      -0.568900
     11 C13         79.7090    20.0740   -10.2800 c          1 2JF       0.629100
     12 O19         79.5620    18.8590   -10.3050 o          1 2JF      -0.599100
     13 C14         78.9980    20.9130    -9.2180 c3         1 2JF       0.071100
     14 O20         77.7850    20.3060    -8.8640 oh         1 2JF      -0.579800
     15 C15         79.9400    21.1030    -8.0250 c3         1 2JF      -0.103400
     16 C16         79.3380    21.8670    -6.8440 c3         1 2JF      -0.055700
     17 C21         80.3400    21.9010    -5.6950 c3         1 2JF      -0.089100
     18 C17         78.9180    23.2840    -7.2230 c3         1 2JF      -0.089100
     19 C           78.2560    14.0890   -12.3460 c          1 2JF       0.530900
     20 O           77.7050    13.5270   -13.2580 o          1 2JF      -0.504100
     21 H1          80.2120    15.4060   -11.0340 hn         1 2JF       0.352800
     22 H2          80.6160    15.2030   -12.6020 hn         1 2JF       0.352800
     23 H4          78.0330    16.0010   -11.4940 h1         1 2JF       0.095700
     24 H5          77.2070    16.0740   -13.8470 h1         1 2JF       0.069200
     25 H6          78.8590    15.8760   -14.4370 h1         1 2JF       0.069200
     26 H7          78.6570    20.0350   -13.0090 hc         1 2JF       0.071200
     27 H8          78.9420    20.1530   -14.7230 hc         1 2JF       0.071200
     28 H9          81.4390    20.1110   -14.3040 hc         1 2JF       0.055200
     29 H10         80.6080    21.5180   -13.6870 hc         1 2JF       0.055200
     30 H11         81.4020    19.1040   -11.9810 h1         1 2JF       0.066700
     31 H12         82.3110    20.5950   -12.1140 h1         1 2JF       0.066700
     32 H13         80.5220    21.7620   -11.0330 hn         1 2JF       0.308500
     33 H14         78.7450    21.8900    -9.6400 h1         1 2JF       0.074700
     34 H15         77.9600    19.3660    -8.7300 ho         1 2JF       0.424000
     35 H16         80.2730    20.1170    -7.6790 hc         1 2JF       0.048200
     36 H17         80.8380    21.6280    -8.3670 hc         1 2JF       0.048200
     37 H18         78.4510    21.3240    -6.5040 hc         1 2JF       0.060700
     38 H19         79.9210    22.4020    -4.8200 hc         1 2JF       0.032867
     39 H20         80.6360    20.8950    -5.3920 hc         1 2JF       0.032867
     40 H21         81.2450    22.4410    -5.9830 hc         1 2JF       0.032867
     41 H22         78.5370    23.8200    -6.3530 hc         1 2JF       0.032867
     42 H23         79.7670    23.8510    -7.6130 hc         1 2JF       0.032867
     43 H24         78.1320    23.3000    -7.9800 hc         1 2JF       0.032867
     44 H25         78.5800    13.5350   -11.4430 h4         1 2JF      -0.018800
@<TRIPOS>BOND
     1     1     2 1   
     2     1    21 1   
     3     1    22 1   
     4     2     3 1   
     5     2    19 1   
     6     2    23 1   
     7     3     4 1   
     8     3    24 1   
     9     3    25 1   
    10     4     5 1   
    11     5     6 2   
    12     5     7 1   
    13     7     8 1   
    14     7    26 1   
    15     7    27 1   
    16     8     9 1   
    17     8    28 1   
    18     8    29 1   
    19     9    10 1   
    20     9    30 1   
    21     9    31 1   
    22    10    11 1   
    23    10    32 1   
    24    11    12 2   
    25    11    13 1   
    26    13    14 1   
    27    13    15 1   
    28    13    33 1   
    29    14    34 1   
    30    15    16 1   
    31    15    35 1   
    32    15    36 1   
    33    16    17 1   
    34    16    18 1   
    35    16    37 1   
    36    17    38 1   
    37    17    39 1   
    38    17    40 1   
    39    18    41 1   
    40    18    42 1   
    41    18    43 1   
    42    19    20 2   
    43    19    44 1   
@<TRIPOS>SUBSTRUCTURE
     1 2JF         1 TEMP              0 ****  ****    0 ROOT
