@<TRIPOS>MOLECULE
2JG
   30    29     1     0     0
SMALL
No Charge or Current Charge


@<TRIPOS>ATOM
      1 C8           0.8660   -18.6270   -23.0180 c          1 2JG       0.594100
      2 C10          0.9800   -17.1770   -23.4990 c3         1 2JG      -0.136400
      3 C11         -0.0840   -16.2540   -22.8540 c3         1 2JG      -0.066400
      4 C12         -1.5420   -16.6270   -23.2090 c3         1 2JG      -0.079400
      5 C13         -2.5780   -15.6610   -22.5940 c3         1 2JG      -0.074400
      6 C14         -4.0320   -16.0320   -22.9450 c3         1 2JG      -0.088100
      7 N           -2.0170   -20.7880   -25.0850 n8         1 2JG      -0.986200
      8 CA          -0.7150   -21.4950   -24.7790 c3         1 2JG       0.022500
      9 CB           0.0360   -20.8150   -23.6000 c3         1 2JG       0.177600
     10 OG           0.2220   -19.4210   -23.9310 os         1 2JG      -0.467100
     11 O9           1.3070   -19.0230   -21.9470 o          1 2JG      -0.470000
     12 C           -0.8280   -23.0380   -24.5530 c          1 2JG       0.580900
     13 H1           1.9740   -16.7970   -23.2340 hc         1 2JG       0.069200
     14 H2           0.8420   -17.1420   -24.5860 hc         1 2JG       0.069200
     15 H3           0.1080   -15.2230   -23.1760 hc         1 2JG       0.052200
     16 H4           0.0400   -16.2700   -21.7630 hc         1 2JG       0.052200
     17 H5          -1.7560   -17.6450   -22.8590 hc         1 2JG       0.040700
     18 H6          -1.6580   -16.6320   -24.3000 hc         1 2JG       0.040700
     19 H7          -2.3770   -14.6410   -22.9440 hc         1 2JG       0.038200
     20 H8          -2.4660   -15.6530   -21.5030 hc         1 2JG       0.038200
     21 H9          -4.7290   -15.3200   -22.4880 hc         1 2JG       0.031700
     22 H10         -4.1860   -16.0140   -24.0310 hc         1 2JG       0.031700
     23 H11         -4.2760   -17.0360   -22.5760 hc         1 2JG       0.031700
     24 H13         -2.3400   -21.0340   -26.0310 hn         1 2JG       0.402000
     25 H15         -0.0780   -21.3780   -25.6670 h1         1 2JG       0.047700
     26 H16         -0.5520   -20.9230   -22.6780 h1         1 2JG       0.079200
     27 H17          1.0050   -21.3100   -23.4480 h1         1 2JG       0.079200
     28 H18         -1.1250   -23.6250   -25.4510 h4         1 2JG      -0.011800
     29 H12         -1.8270   -19.7780   -25.1490 hn         1 2JG       0.402000
     30 O           -0.6100   -23.6010   -23.4820 o          1 2JG      -0.502100
@<TRIPOS>BOND
     1     1     2 1   
     2     1    10 1   
     3     1    11 2   
     4     2     3 1   
     5     2    13 1   
     6     2    14 1   
     7     3     4 1   
     8     3    15 1   
     9     3    16 1   
    10     4     5 1   
    11     4    17 1   
    12     4    18 1   
    13     5     6 1   
    14     5    19 1   
    15     5    20 1   
    16     6    21 1   
    17     6    22 1   
    18     6    23 1   
    19     7     8 1   
    20     7    24 1   
    21     7    29 1   
    22     8     9 1   
    23     8    12 1   
    24     8    25 1   
    25     9    10 1   
    26     9    26 1   
    27     9    27 1   
    28    12    28 1   
    29    12    30 2   
@<TRIPOS>SUBSTRUCTURE
     1 2JG         1 TEMP              0 ****  ****    0 ROOT
