@<TRIPOS>MOLECULE
2JG
   30    29     1     0     0
SMALL
abcg2


@<TRIPOS>ATOM
      1 C8           0.4380   -18.7960   -23.0540 c          1 2JG       0.594100
      2 C10          0.6710   -17.3710   -23.4850 c3         1 2JG      -0.136400
      3 C11         -0.2510   -16.3700   -22.8000 c3         1 2JG      -0.066400
      4 C12         -1.7060   -16.4850   -23.2380 c3         1 2JG      -0.079400
      5 C13         -2.6030   -15.4440   -22.5790 c3         1 2JG      -0.074400
      6 C14         -4.0530   -15.5410   -23.0320 c3         1 2JG      -0.088100
      7 N           -1.7420   -20.9170   -24.4950 n8         1 2JG      -0.986200
      8 CA          -0.4650   -21.5540   -24.7740 c3         1 2JG       0.022500
      9 CB           0.6130   -21.0580   -23.8240 c3         1 2JG       0.177600
     10 OG           0.7800   -19.6530   -24.0170 os         1 2JG      -0.467100
     11 O9           0.0320   -19.1270   -21.9690 o          1 2JG      -0.470000
     12 C           -0.6310   -23.0510   -24.6660 c          1 2JG       0.580900
     13 H1           1.7150   -17.1390   -23.2480 hc         1 2JG       0.069200
     14 H2           0.5850   -17.2940   -24.5710 hc         1 2JG       0.069200
     15 H3           0.1120   -15.3650   -23.0300 hc         1 2JG       0.052200
     16 H4          -0.1760   -16.4780   -21.7150 hc         1 2JG       0.052200
     17 H5          -2.0900   -17.4850   -23.0120 hc         1 2JG       0.040700
     18 H6          -1.7650   -16.3760   -24.3260 hc         1 2JG       0.040700
     19 H7          -2.2160   -14.4440   -22.7980 hc         1 2JG       0.038200
     20 H8          -2.5490   -15.5580   -21.4920 hc         1 2JG       0.038200
     21 H9          -4.6760   -14.7900   -22.5450 hc         1 2JG       0.031700
     22 H10         -4.1400   -15.3930   -24.1100 hc         1 2JG       0.031700
     23 H11         -4.4740   -16.5210   -22.8000 hc         1 2JG       0.031700
     24 H13         -2.4790   -21.3730   -25.0190 hn         1 2JG       0.402000
     25 H15         -0.1210   -21.3890   -25.8110 h1         1 2JG       0.047700
     26 H16          0.3480   -21.2850   -22.7920 h1         1 2JG       0.079200
     27 H17          1.5720   -21.5230   -24.0520 h1         1 2JG       0.079200
     28 H18         -1.5840   -23.4330   -25.0790 h4         1 2JG      -0.011800
     29 H12         -1.7280   -19.9640   -24.8350 hn         1 2JG       0.402000
     30 O            0.1900   -23.8020   -24.2100 o          1 2JG      -0.502100
@<TRIPOS>BOND
     1     1     2 1   
     2     1    10 1   
     3     1    11 2   
     4     2     3 1   
     5     2    13 1   
     6     2    14 1   
     7     3     4 1   
     8     3    15 1   
     9     3    16 1   
    10     4     5 1   
    11     4    17 1   
    12     4    18 1   
    13     5     6 1   
    14     5    19 1   
    15     5    20 1   
    16     6    21 1   
    17     6    22 1   
    18     6    23 1   
    19     7     8 1   
    20     7    24 1   
    21     7    29 1   
    22     8     9 1   
    23     8    12 1   
    24     8    25 1   
    25     9    10 1   
    26     9    26 1   
    27     9    27 1   
    28    12    28 1   
    29    12    30 2   
@<TRIPOS>SUBSTRUCTURE
     1 2JG         1 TEMP              0 ****  ****    0 ROOT
