@<TRIPOS>MOLECULE
2JH
   22    22     1     0     0
SMALL
bcc


@<TRIPOS>ATOM
      1 N            0.7610     1.7350     0.4250 n8         1 2JH      -0.873800
      2 CA           0.9340     0.2920     0.4970 c3         1 2JH       0.023500
      3 CB          -0.1590    -0.5290    -0.2060 c3         1 2JH      -0.091400
      4 C1           2.3060    -0.1270    -0.0740 c          1 2JH       0.934600
      5 O            2.8690     0.6620    -0.8580 o          1 2JH      -0.838300
      6 CG          -1.5620    -0.3310     0.3370 cy         1 2JH      -0.070700
      7 CD1         -2.3840     0.9290    -0.0220 cy         1 2JH      -0.094900
      8 CD2         -2.6970    -1.1730    -0.2820 cy         1 2JH      -0.094900
      9 CE          -3.6340     0.0380    -0.1280 cy         1 2JH      -0.101400
     10 H1           0.8870     2.0310    -0.5350 hn         1 2JH       0.317300
     11 H2          -0.1840     1.9850     0.6840 hn         1 2JH       0.317300
     12 H4           0.9160     0.0110     1.5570 h1         1 2JH       0.040700
     13 H5          -0.1540    -0.2970    -1.2790 hc         1 2JH       0.046200
     14 H6           0.0950    -1.5900    -0.1150 hc         1 2JH       0.046200
     15 H8          -1.5580    -0.4690     1.4250 hc         1 2JH       0.045700
     16 H9          -2.4080     1.7550     0.6920 hc         1 2JH       0.041950
     17 H10         -2.0950     1.3250    -0.9980 hc         1 2JH       0.041950
     18 H11         -2.4920    -1.3870    -1.3340 hc         1 2JH       0.041950
     19 H12         -2.9710    -2.1060     0.2130 hc         1 2JH       0.041950
     20 H13         -4.1890     0.0040     0.8110 hc         1 2JH       0.032200
     21 H14         -4.3380     0.2430    -0.9350 hc         1 2JH       0.032200
     22 O1           2.7220    -1.2530     0.2700 o          1 2JH      -0.838300
@<TRIPOS>BOND
     1     1     2 1   
     2     1    10 1   
     3     1    11 1   
     4     2     3 1   
     5     2     4 1   
     6     2    12 1   
     7     3     6 1   
     8     3    13 1   
     9     3    14 1   
    10     4     5 1   
    11     4    22 1   
    12     6     7 1   
    13     6     8 1   
    14     6    15 1   
    15     7     9 1   
    16     7    16 1   
    17     7    17 1   
    18     8     9 1   
    19     8    18 1   
    20     8    19 1   
    21     9    20 1   
    22     9    21 1   
@<TRIPOS>SUBSTRUCTURE
     1 2JH         1 TEMP              0 ****  ****    0 ROOT
