@<TRIPOS>MOLECULE
2JI
   30    31     1     0     0
SMALL
bcc


@<TRIPOS>ATOM
      1 C4         -19.7390   -12.6250     1.6220 ca         1 2JI      -0.116000
      2 C14        -22.9150   -15.4920     4.7940 c3         1 2JI      -0.159200
      3 C5         -20.2250   -13.7420     0.9670 ca         1 2JI      -0.172000
      4 C6         -21.0760   -14.5860     1.6760 ca         1 2JI      -0.047200
      5 C7         -21.4360   -14.3220     3.0140 ca         1 2JI      -0.090800
      6 C8         -20.9180   -13.1890     3.6500 ca         1 2JI      -0.040000
      7 C9         -22.3170   -15.3720     3.4330 cc         1 2JI      -0.035400
      8 C10        -22.4510   -16.2160     2.3630 cd         1 2JI      -0.095300
      9 C13        -23.2130   -17.4860     2.2350 c3         1 2JI      -0.016900
     10 C3         -20.0750   -12.3340     2.9590 ca         1 2JI      -0.146300
     11 C1         -20.3820    -9.8460     3.2360 c3         1 2JI      -0.085100
     12 C15        -21.9190   -16.0410     5.8500 c          1 2JI       0.933600
     13 C2         -19.5520   -11.0760     3.6020 c3         1 2JI      -0.018100
     14 N11        -21.7030   -15.7410     1.3110 na         1 2JI      -0.189400
     15 O16        -21.7450   -15.3520     6.8750 o          1 2JI      -0.836800
     16 O17        -21.3850   -17.1350     5.5840 o          1 2JI      -0.836800
     17 H1         -19.0730   -11.9530     1.0920 ha         1 2JI       0.105000
     18 H2         -23.3030   -14.5210     5.1130 hc         1 2JI       0.025200
     19 H3         -23.7740   -16.1710     4.7630 hc         1 2JI       0.025200
     20 H4         -19.9470   -13.9510    -0.0580 ha         1 2JI       0.110000
     21 H5         -21.1730   -12.9810     4.6840 ha         1 2JI       0.152000
     22 H6         -22.5510   -18.3540     2.2540 hc         1 2JI       0.035700
     23 H7         -23.9210   -17.5980     3.0540 hc         1 2JI       0.035700
     24 H8         -23.7740   -17.5260     1.3000 hc         1 2JI       0.035700
     25 H9         -19.9800    -8.9460     3.7030 hc         1 2JI       0.024367
     26 H10        -20.3920    -9.6850     2.1570 hc         1 2JI       0.024367
     27 H11        -21.4160    -9.9620     3.5640 hc         1 2JI       0.024367
     28 H12        -18.5140   -10.9110     3.3010 hc         1 2JI       0.037200
     29 H13        -19.5430   -11.1930     4.6880 hc         1 2JI       0.037200
     30 H14        -21.6410   -16.1780     0.4060 hn         1 2JI       0.276700
@<TRIPOS>BOND
     1     1     3 ar  
     2     1    10 ar  
     3     1    17 1   
     4     2     7 1   
     5     2    12 1   
     6     2    18 1   
     7     2    19 1   
     8     3     4 ar  
     9     3    20 1   
    10     4     5 ar  
    11     4    14 1   
    12     5     6 ar  
    13     5     7 1   
    14     6    10 ar  
    15     6    21 1   
    16     7     8 2   
    17     8     9 1   
    18     8    14 1   
    19     9    22 1   
    20     9    23 1   
    21     9    24 1   
    22    10    13 1   
    23    11    13 1   
    24    11    25 1   
    25    11    26 1   
    26    11    27 1   
    27    12    15 1   
    28    12    16 1   
    29    13    28 1   
    30    13    29 1   
    31    14    30 1   
@<TRIPOS>SUBSTRUCTURE
     1 2JI         1 TEMP              0 ****  ****    0 ROOT
