@<TRIPOS>MOLECULE
2JI
   30    31     1     0     0
SMALL
No Charge or Current Charge


@<TRIPOS>ATOM
      1 C4         -19.7200   -12.6030     1.5310 ca         1 2JI      -0.098000
      2 C14        -22.8980   -15.4420     4.7910 c3         1 2JI      -0.159200
      3 C5         -20.2290   -13.7620     0.9070 ca         1 2JI      -0.154000
      4 C6         -21.0710   -14.5980     1.6500 ca         1 2JI      -0.047200
      5 C7         -21.4010   -14.3110     2.9440 ca         1 2JI      -0.090800
      6 C8         -20.9110   -13.1690     3.5950 ca         1 2JI      -0.022000
      7 C9         -22.2730   -15.3510     3.4180 cc         1 2JI      -0.035400
      8 C10        -22.4210   -16.2350     2.3480 cd         1 2JI      -0.095300
      9 C13        -23.2320   -17.5040     2.2950 c3         1 2JI      -0.016900
     10 C3         -20.0560   -12.3020     2.8750 ca         1 2JI      -0.146300
     11 C1         -20.4910    -9.8690     3.4660 c3         1 2JI      -0.085100
     12 C15        -21.9440   -16.0730     5.8200 c          1 2JI       0.723000
     13 C2         -19.5050   -11.0490     3.5410 c3         1 2JI      -0.018100
     14 N11        -21.6740   -15.7710     1.2400 na         1 2JI      -0.239700
     15 O16        -21.1670   -15.3400     6.4140 o          1 2JI      -0.731500
     16 O17        -21.9300   -17.2920     5.9240 o          1 2JI      -0.731500
     17 H1         -19.0660   -11.9380     0.9710 ha         1 2JI       0.087000
     18 H2         -23.1380   -14.4140     5.0870 hc         1 2JI       0.025200
     19 H3         -23.7920   -16.0680     4.6840 hc         1 2JI       0.025200
     20 H4         -19.9730   -13.9970    -0.1230 ha         1 2JI       0.092000
     21 H5         -21.1820   -12.9580     4.6270 ha         1 2JI       0.134000
     22 H6         -22.9660   -18.1740     3.1200 hc         1 2JI       0.035700
     23 H7         -24.3040   -17.2850     2.3710 hc         1 2JI       0.035700
     24 H8         -23.0680   -18.0480     1.3570 hc         1 2JI       0.035700
     25 H9         -20.0660    -8.9830     3.9520 hc         1 2JI       0.024367
     26 H10        -20.7130    -9.6170     2.4220 hc         1 2JI       0.024367
     27 H11        -21.4330   -10.1190     3.9700 hc         1 2JI       0.024367
     28 H12        -18.5590   -10.7510     3.0720 hc         1 2JI       0.037200
     29 H13        -19.2730   -11.2520     4.5940 hc         1 2JI       0.037200
     30 H14        -21.5970   -16.2100     0.3280 hn         1 2JI       0.327000
@<TRIPOS>BOND
     1     1     3 ar  
     2     1    10 ar  
     3     1    17 1   
     4     2     7 1   
     5     2    12 1   
     6     2    18 1   
     7     2    19 1   
     8     3     4 ar  
     9     3    20 1   
    10     4     5 ar  
    11     4    14 1   
    12     5     6 ar  
    13     5     7 1   
    14     6    10 ar  
    15     6    21 1   
    16     7     8 2   
    17     8     9 1   
    18     8    14 1   
    19     9    22 1   
    20     9    23 1   
    21     9    24 1   
    22    10    13 1   
    23    11    13 1   
    24    11    25 1   
    25    11    26 1   
    26    11    27 1   
    27    12    15 1   
    28    12    16 1   
    29    13    28 1   
    30    13    29 1   
    31    14    30 1   
@<TRIPOS>SUBSTRUCTURE
     1 2JI         1 TEMP              0 ****  ****    0 ROOT
