@<TRIPOS>MOLECULE
2JJ
   21    20     1     0     0
SMALL
abcg2


@<TRIPOS>ATOM
      1 OAC         19.3610   -20.2650    52.4920 o          1 2JJ      -0.945500
      2 PAL         20.6980   -20.9200    52.1000 p5         1 2JJ       1.308500
      3 OAE         20.6030   -22.4500    51.9740 o          1 2JJ      -0.945500
      4 OAF         21.8910   -20.4430    52.9460 o          1 2JJ      -0.945500
      5 CAI         21.0870   -20.3510    50.3530 c3         1 2JJ      -0.385400
      6 CAG         21.6010   -18.9210    50.1740 c3         1 2JJ      -0.011400
      7 CB          20.6020   -17.8260    50.5230 c3         1 2JJ      -0.051400
      8 CA          21.1600   -16.4120    50.3650 c3         1 2JJ       0.028500
      9 N           21.5490   -16.1650    48.9810 n8         1 2JJ      -1.001200
     10 C           20.1610   -15.3320    50.8580 c          1 2JJ       0.712000
     11 OXT         19.5990   -15.5540    51.9500 o          1 2JJ      -0.760000
     12 O           20.0210   -14.3110    50.1520 o          1 2JJ      -0.760000
     13 H3          20.2030   -20.4970    49.7190 hc         1 2JJ      -0.014300
     14 H4          21.8470   -21.0310    49.9490 hc         1 2JJ      -0.014300
     15 H5          21.9330   -18.7830    49.1380 hc         1 2JJ      -0.024300
     16 H6          19.7160   -17.9280    49.8830 hc         1 2JJ       0.065200
     17 H7          22.0260   -16.3350    51.0480 h1         1 2JJ      -0.007300
     18 H8          21.6140   -15.1650    48.8440 hn         1 2JJ       0.356000
     19 H9          22.4700   -16.5450    48.8060 hn         1 2JJ       0.356000
     20 H12         22.4970   -18.7920    50.7920 hc         1 2JJ      -0.024300
     21 H13         20.2610   -17.9700    51.5460 hc         1 2JJ       0.065200
@<TRIPOS>BOND
     1     1     2 1   
     2     2     3 1   
     3     2     4 1   
     4     2     5 1   
     5     5     6 1   
     6     5    13 1   
     7     5    14 1   
     8     6     7 1   
     9     6    15 1   
    10     6    20 1   
    11     7     8 1   
    12     7    16 1   
    13     7    21 1   
    14     8     9 1   
    15     8    10 1   
    16     8    17 1   
    17     9    18 1   
    18     9    19 1   
    19    10    11 1   
    20    10    12 1   
@<TRIPOS>SUBSTRUCTURE
     1 2JJ         1 TEMP              0 ****  ****    0 ROOT
