@<TRIPOS>MOLECULE
2JJ
   21    20     1     0     0
SMALL
No Charge or Current Charge


@<TRIPOS>ATOM
      1 OAC         19.5100   -20.3440    52.5980 o          1 2JJ      -0.945500
      2 PAL         20.8100   -20.9080    52.1350 p5         1 2JJ       1.308500
      3 OAE         20.7460   -22.3970    52.1430 o          1 2JJ      -0.945500
      4 OAF         21.9230   -20.4430    53.0110 o          1 2JJ      -0.945500
      5 CAI         21.1260   -20.3590    50.3900 c3         1 2JJ      -0.385400
      6 CAG         21.6220   -18.9070    50.1840 c3         1 2JJ      -0.011400
      7 CB          20.5720   -17.8080    50.4990 c3         1 2JJ      -0.051400
      8 CA          21.0710   -16.3520    50.2650 c3         1 2JJ       0.028500
      9 N           21.3760   -16.1150    48.8070 n8         1 2JJ      -1.001200
     10 C           20.1230   -15.2810    50.9680 c          1 2JJ       0.712000
     11 OXT         18.9080   -15.4400    50.9360 o          1 2JJ      -0.760000
     12 O           20.6470   -14.3180    51.5140 o          1 2JJ      -0.760000
     13 H3          20.2130   -20.5180    49.8040 hc         1 2JJ      -0.014300
     14 H4          21.8800   -21.0390    49.9750 hc         1 2JJ      -0.014300
     15 H5          21.9360   -18.8090    49.1370 hc         1 2JJ      -0.024300
     16 H6          19.6660   -17.9840    49.9050 hc         1 2JJ       0.065200
     17 H7          22.0400   -16.2740    50.7780 h1         1 2JJ      -0.007300
     18 H8          21.8900   -15.2310    48.7130 hn         1 2JJ       0.356000
     19 H9          22.0390   -16.8300    48.4890 hn         1 2JJ       0.356000
     20 H12         22.5200   -18.7400    50.7900 hc         1 2JJ      -0.024300
     21 H13         20.2790   -17.8990    51.5510 hc         1 2JJ       0.065200
@<TRIPOS>BOND
     1     1     2 1   
     2     2     3 1   
     3     2     4 1   
     4     2     5 1   
     5     5     6 1   
     6     5    13 1   
     7     5    14 1   
     8     6     7 1   
     9     6    15 1   
    10     6    20 1   
    11     7     8 1   
    12     7    16 1   
    13     7    21 1   
    14     8     9 1   
    15     8    10 1   
    16     8    17 1   
    17     9    18 1   
    18     9    19 1   
    19    10    11 1   
    20    10    12 1   
@<TRIPOS>SUBSTRUCTURE
     1 2JJ         1 TEMP              0 ****  ****    0 ROOT
