@<TRIPOS>MOLECULE
2JK
   26    27     1     0     0
SMALL
abcg2


@<TRIPOS>ATOM
      1 O1          -3.5700    -1.7840     0.0960 o          1 2JK      -0.554500
      2 C2          -3.3450    -0.5660     0.0310 c2         1 2JK       0.382000
      3 O2          -4.1800     0.3580    -0.0130 o          1 2JK      -0.554500
      4 C1          -1.8720    -0.1360     0.0040 c2         1 2JK      -0.019000
      5 N1          -0.9550    -1.0710     0.0310 n2         1 2JK      -0.163000
      6 C10          0.3470    -0.7070     0.0120 ca         1 2JK       0.136000
      7 C9           1.2940    -1.7570     0.0460 ca         1 2JK      -0.364000
      8 C8           2.6370    -1.5030     0.0320 ca         1 2JK      -0.586000
      9 CL2          3.6580    -2.6000     0.0640 cl         1 2JK       1.663000
     10 C7           3.0640    -0.1570    -0.0170 ca         1 2JK      -0.105000
     11 C6           2.1990     0.9090    -0.0510 ca         1 2JK      -0.752000
     12 CL1          2.7950     2.2900    -0.1020 cl         1 2JK       1.710000
     13 C5           0.7940     0.6440    -0.0360 ca         1 2JK      -0.108000
     14 C4          -0.2370     1.6250    -0.0650 c2         1 2JK       0.060000
     15 O3           0.1020     2.9170    -0.1100 oh         1 2JK      -0.319000
     16 C3          -1.5530     1.2290    -0.0450 c2         1 2JK      -0.294000
     17 H2           0.9160    -2.7720     0.0840 ha         1 2JK       0.118000
     18 H3           4.2910    -2.5700    -0.8240 ha         1 2JK      -0.254667
     19 H4           4.3160    -2.4980     0.9280 ha         1 2JK      -0.254667
     20 H5           3.1920    -3.5830     0.1100 ha         1 2JK      -0.254667
     21 H6           4.1300     0.0390    -0.0280 ha         1 2JK       0.055000
     22 H7           2.5090     2.8950     0.7570 ha         1 2JK      -0.301667
     23 H8           3.8820     2.2200    -0.1090 ha         1 2JK      -0.301667
     24 H9           2.4940     2.8360    -0.9950 ha         1 2JK      -0.301667
     25 H10         -0.6900     3.4680    -0.1250 ho         1 2JK       0.223000
     26 H11         -2.3490     1.9630    -0.0670 ha         1 2JK       0.143000
@<TRIPOS>BOND
     1     1     2 1   
     2     2     3 1   
     3     2     4 1   
     4     4     5 1   
     5     4    16 1   
     6     5     6 1   
     7     6     7 1   
     8     6    13 1   
     9     7     8 1   
    10     7    17 1   
    11     8     9 1   
    12     8    10 1   
    13     9    18 1   
    14     9    19 1   
    15     9    20 1   
    16    10    11 1   
    17    10    21 1   
    18    11    12 1   
    19    11    13 1   
    20    12    22 1   
    21    12    23 1   
    22    12    24 1   
    23    13    14 1   
    24    14    15 1   
    25    14    16 1   
    26    15    25 1   
    27    16    26 1   
@<TRIPOS>SUBSTRUCTURE
     1 2JK         1 TEMP              0 ****  ****    0 ROOT
