@<TRIPOS>MOLECULE
2JK
   26    27     1     0     0
SMALL
No Charge or Current Charge


@<TRIPOS>ATOM
      1 O1          -1.7110    -1.3610    -0.3330 o          1 2JK      -0.554500
      2 C2          -1.5670    -0.1430    -0.2770 c          1 2JK       0.382000
      3 O2          -2.6450     0.4570    -0.3260 o          1 2JK      -0.554500
      4 C1          -0.3500     0.4640    -0.1690 c2         1 2JK      -0.019000
      5 N1           0.7500    -0.2190    -0.0870 n2         1 2JK      -0.163000
      6 C10          1.9650     0.3700     0.0510 ca         1 2JK       0.136000
      7 C9           3.1100    -0.4460     0.0930 ca         1 2JK      -0.364000
      8 C8           4.4110     0.1430     0.1980 ca         1 2JK      -0.586000
      9 Cl2          6.0630    -0.8690     0.2010 cl         1 2JK       1.663000
     10 C7           4.5060     1.5420     0.3020 ca         1 2JK      -0.105000
     11 C6           3.3780     2.3810     0.2680 ca         1 2JK      -0.752000
     12 Cl1          3.7070     4.2870     0.3740 cl         1 2JK       1.710000
     13 C5           2.0670     1.7880     0.1350 ca         1 2JK      -0.108000
     14 C4           0.8540     2.4900     0.0620 c2         1 2JK       0.060000
     15 O3           0.8510     3.8270     0.1690 oh         1 2JK      -0.319000
     16 C3          -0.2900     1.8130    -0.0810 c2         1 2JK      -0.294000
     17 H2           2.9830    -1.5320     0.0420 ha         1 2JK       0.118000
     18 H3          -2.0020    -0.5460    -2.9830 ha         1 2JK      -0.254667
     19 H4          -2.7570     0.0490     2.5290 ha         1 2JK      -0.254667
     20 H5           0.1510    -3.3890     0.2570 ha         1 2JK      -0.254667
     21 H6           5.4880     1.9920     0.4020 ha         1 2JK       0.055000
     22 H7          -3.9150    -4.0990     1.3940 ha         1 2JK      -0.301667
     23 H8           4.2490    -9.6230    -0.7350 ha         1 2JK      -0.301667
     24 H9          -4.1320    -4.1820    -1.9030 ha         1 2JK      -0.301667
     25 H10         -0.0870     4.0970     0.1550 ho         1 2JK       0.223000
     26 H11         -1.2040     2.3970    -0.1300 ha         1 2JK       0.143000
@<TRIPOS>BOND
     1     1     2 1   
     2     2     3 1   
     3     2     4 1   
     4     4     5 1   
     5     4    16 1   
     6     5     6 1   
     7     6     7 ar  
     8     6    13 ar  
     9     7     8 ar  
    10     7    17 1   
    11     8     9 1   
    12     8    10 ar  
    13     9    18 1   
    14     9    19 1   
    15     9    20 1   
    16    10    11 ar  
    17    10    21 1   
    18    11    12 1   
    19    11    13 ar  
    20    12    22 1   
    21    12    23 1   
    22    12    24 1   
    23    13    14 1   
    24    14    15 1   
    25    14    16 1   
    26    15    25 1   
    27    16    26 1   
@<TRIPOS>SUBSTRUCTURE
     1 2JK         1 TEMP              0 ****  ****    0 ROOT
