@<TRIPOS>MOLECULE
2JL
   44    47     1     0     0
SMALL
bcc


@<TRIPOS>ATOM
      1 N            3.8620    -0.5470     1.9180 n7         1 2JL      -0.777200
      2 CA           4.1440     0.3460     0.8100 c6         1 2JL       0.050500
      3 CAF         -7.5070    -0.1180     0.2890 ca         1 2JL      -0.146000
      4 CAG         -6.9620     1.1350     0.5970 ca         1 2JL      -0.150000
      5 CAH         -1.3170     1.9030     0.0460 ca         1 2JL      -0.083000
      6 CAI         -6.6800    -1.1340    -0.1230 ca         1 2JL      -0.126000
      7 CAJ         -5.6080     1.3520     0.4880 ca         1 2JL      -0.113000
      8 CAK         -2.6740     1.7510     0.1980 ca         1 2JL      -0.154000
      9 CAL         -4.4400    -1.9990    -0.6700 ca         1 2JL      -0.165000
     10 CAM         -3.1060    -1.8220    -0.7870 ca         1 2JL      -0.072000
     11 CAN         -1.1130    -0.3910    -0.6130 ca         1 2JL      -0.080000
     12 CAO          2.4730    -0.4490     2.3150 c6         1 2JL       0.152800
     13 CAP          1.4650    -0.6110     1.1790 c6         1 2JL       0.061000
     14 CAU         -0.5180     0.8190    -0.3450 ca         1 2JL      -0.098600
     15 CAV         -5.2920    -0.9330    -0.2410 ca         1 2JL      -0.029000
     16 CAW         -2.5030    -0.5600    -0.4890 ca         1 2JL      -0.056000
     17 CAX         -4.7370     0.3300     0.0660 ca         1 2JL      -0.010000
     18 CAY         -3.3080     0.5220    -0.0670 ca         1 2JL      -0.034000
     19 C            5.6200     0.3400     0.3700 c          1 2JL       0.973600
     20 O            6.4360    -0.2920     1.0620 o          1 2JL      -0.849800
     21 NAZ          1.8120     0.2780     0.0840 n          1 2JL      -0.402800
     22 OAC          1.2690     1.8450    -1.4590 o          1 2JL      -0.635100
     23 CB           3.1900     0.1430    -0.3690 c6         1 2JL      -0.067300
     24 CG           3.3360    -1.2240    -1.0970 c          1 2JL       0.919600
     25 OD1          2.3610    -1.5830    -1.7840 o          1 2JL      -0.836800
     26 OD2          4.4150    -1.8270    -0.9560 o          1 2JL      -0.836800
     27 OXT          5.8810     1.0480    -0.6270 o          1 2JL      -0.849800
     28 H1           4.0840    -1.4950     1.6370 hn         1 2JL       0.377800
     29 H3           3.9530     1.3660     1.1790 h1         1 2JL       0.012700
     30 H6          -0.8630     2.8650     0.2460 ha         1 2JL       0.140000
     31 H7          -7.0890    -2.1080    -0.3650 ha         1 2JL       0.118000
     32 H8          -5.2230     2.3310     0.7380 ha         1 2JL       0.127000
     33 H9          -3.2500     2.6080     0.5180 ha         1 2JL       0.112000
     34 H10         -4.8880    -2.9580    -0.9000 ha         1 2JL       0.117000
     35 H11         -2.4700    -2.6380    -1.1090 ha         1 2JL       0.142000
     36 H12         -0.5090    -1.2320    -0.9390 ha         1 2JL       0.181000
     37 H13          2.2580    -1.1960     3.0830 h1         1 2JL       0.014200
     38 H14          2.3180     0.5340     2.7730 h1         1 2JL       0.014200
     39 H15          1.4540    -1.6490     0.8280 h1         1 2JL       0.028700
     40 H16          0.4690    -0.3830     1.5530 h1         1 2JL       0.028700
     41 H17          3.3800     0.9270    -1.1010 h1         1 2JL       0.101700
     42 CAT          0.9410     1.0200    -0.6100 c          1 2JL       0.672700
     43 H4          -8.5730    -0.2820     0.3760 ha         1 2JL       0.113000
     44 H5          -7.6080     1.9400     0.9230 ha         1 2JL       0.114000
@<TRIPOS>BOND
     1     1     2 1   
     2     1    12 1   
     3     1    28 1   
     4     2    19 1   
     5     2    23 1   
     6     2    29 1   
     7     3     4 ar  
     8     3     6 ar  
     9     3    43 1   
    10     4     7 ar  
    11     4    44 1   
    12     5     8 ar  
    13     5    14 ar  
    14     5    30 1   
    15     6    15 ar  
    16     6    31 1   
    17     7    17 ar  
    18     7    32 1   
    19     8    18 ar  
    20     8    33 1   
    21     9    10 ar  
    22     9    15 ar  
    23     9    34 1   
    24    10    16 ar  
    25    10    35 1   
    26    11    14 ar  
    27    11    16 ar  
    28    11    36 1   
    29    12    13 1   
    30    12    37 1   
    31    12    38 1   
    32    13    21 1   
    33    13    39 1   
    34    13    40 1   
    35    14    42 1   
    36    15    17 ar  
    37    16    18 ar  
    38    17    18 ar  
    39    19    20 1   
    40    19    27 1   
    41    21    23 1   
    42    21    42 1   
    43    22    42 2   
    44    23    24 1   
    45    23    41 1   
    46    24    25 1   
    47    24    26 1   
@<TRIPOS>SUBSTRUCTURE
     1 2JL         1 TEMP              0 ****  ****    0 ROOT
