@<TRIPOS>MOLECULE
2JL
   44    47     1     0     0
SMALL
No Charge or Current Charge


@<TRIPOS>ATOM
      1 N            3.8760    -0.6530     1.9660 n7         1 2JL      -0.832400
      2 CA           4.2090     0.2600     0.8100 c6         1 2JL       0.050500
      3 CAF         -7.6140    -0.0710     0.1340 ca         1 2JL      -0.128000
      4 CAG         -7.1120     1.2280     0.2800 ca         1 2JL      -0.132000
      5 CAH         -1.3990     2.0230    -0.0770 ca         1 2JL      -0.065000
      6 CAI         -6.7300    -1.1350    -0.0900 ca         1 2JL      -0.108000
      7 CAJ         -5.7300     1.4680     0.2030 ca         1 2JL      -0.095000
      8 CAK         -2.7930     1.8750     0.0120 ca         1 2JL      -0.136000
      9 CAL         -4.4890    -1.9960    -0.3940 ca         1 2JL      -0.147000
     10 CAM         -3.1060    -1.8040    -0.4770 ca         1 2JL      -0.054000
     11 CAN         -1.1630    -0.3610    -0.4220 ca         1 2JL      -0.062000
     12 CAO          2.4560    -0.5470     2.3640 c6         1 2JL       0.152800
     13 CAP          1.4900    -0.8130     1.1800 c6         1 2JL       0.061000
     14 CAU         -0.5640     0.9080    -0.2730 ca         1 2JL      -0.098600
     15 CAV         -5.3430    -0.9050    -0.1680 ca         1 2JL      -0.029000
     16 CAW         -2.5600    -0.5170    -0.3340 ca         1 2JL      -0.056000
     17 CAX         -4.8160     0.4060    -0.0230 ca         1 2JL      -0.010000
     18 CAY         -3.4030     0.6020    -0.1090 ca         1 2JL      -0.034000
     19 C            5.7280     0.2470     0.3360 c          1 2JL       0.763000
     20 O            6.3520    -0.8010     0.4780 o          1 2JL      -0.744500
     21 NAZ          1.7930     0.0350    -0.0140 n          1 2JL      -0.335800
     22 OAC          1.3870     2.1350    -0.8750 o          1 2JL      -0.635100
     23 CB           3.2570     0.0240    -0.4050 c6         1 2JL      -0.067300
     24 CG           3.7230    -1.1890    -1.2710 c          1 2JL       0.709000
     25 OD1          3.1810    -2.2700    -1.0850 o          1 2JL      -0.731500
     26 OD2          4.2020    -0.9110    -2.3620 o          1 2JL      -0.731500
     27 OXT          6.3100     1.3260     0.3180 o          1 2JL      -0.744500
     28 H1           4.0650    -1.6180     1.6670 hn         1 2JL       0.433000
     29 H3           4.0180     1.2860     1.1610 h1         1 2JL       0.012700
     30 H6          -0.9640     3.0160     0.0190 ha         1 2JL       0.122000
     31 H7          -7.1250    -2.1430    -0.2030 ha         1 2JL       0.100000
     32 H8          -5.4000     2.4930     0.3250 ha         1 2JL       0.109000
     33 H9          -3.3720     2.7770     0.1730 ha         1 2JL       0.094000
     34 H10         -4.8970    -2.9980    -0.5060 ha         1 2JL       0.099000
     35 H11         -2.4580    -2.6600    -0.6510 ha         1 2JL       0.124000
     36 H12         -0.5420    -1.2320    -0.6230 ha         1 2JL       0.163000
     37 H13          2.2510    -1.2610     3.1750 h1         1 2JL       0.014200
     38 H14          2.2710     0.4630     2.7580 h1         1 2JL       0.014200
     39 H15          1.5410    -1.8730     0.8950 h1         1 2JL       0.028700
     40 H16          0.4710    -0.6260     1.5410 h1         1 2JL       0.028700
     41 H17          3.4310     0.8790    -1.0710 h1         1 2JL       0.101700
     42 CAT          0.9360     1.1030    -0.3850 c          1 2JL       0.605700
     43 H4          -8.6850    -0.2540     0.1930 ha         1 2JL       0.095000
     44 H5          -7.7970     2.0560     0.4540 ha         1 2JL       0.096000
@<TRIPOS>BOND
     1     1     2 1   
     2     1    12 1   
     3     1    28 1   
     4     2    19 1   
     5     2    23 1   
     6     2    29 1   
     7     3     4 ar  
     8     3     6 ar  
     9     3    43 1   
    10     4     7 ar  
    11     4    44 1   
    12     5     8 ar  
    13     5    14 ar  
    14     5    30 1   
    15     6    15 ar  
    16     6    31 1   
    17     7    17 ar  
    18     7    32 1   
    19     8    18 ar  
    20     8    33 1   
    21     9    10 ar  
    22     9    15 ar  
    23     9    34 1   
    24    10    16 ar  
    25    10    35 1   
    26    11    14 ar  
    27    11    16 ar  
    28    11    36 1   
    29    12    13 1   
    30    12    37 1   
    31    12    38 1   
    32    13    21 1   
    33    13    39 1   
    34    13    40 1   
    35    14    42 1   
    36    15    17 ar  
    37    16    18 ar  
    38    17    18 ar  
    39    19    20 1   
    40    19    27 1   
    41    21    23 1   
    42    21    42 1   
    43    22    42 2   
    44    23    24 1   
    45    23    41 1   
    46    24    25 1   
    47    24    26 1   
@<TRIPOS>SUBSTRUCTURE
     1 2JL         1 TEMP              0 ****  ****    0 ROOT
