@<TRIPOS>MOLECULE
2JM
   21    22     1     0     0
SMALL
bcc


@<TRIPOS>ATOM
      1 C4           2.3590     0.5190    -0.1250 ca         1 2JM       0.209100
      2 C5           3.6850     0.7840     0.2250 ca         1 2JM      -0.127900
      3 C6           4.0050     1.4230     1.4140 ca         1 2JM      -0.044000
      4 C10         -0.0570     0.6370     0.4480 cc         1 2JM      -0.008300
      5 C13         -2.2090     1.1400     0.1390 cc         1 2JM      -0.048200
      6 BR1         -3.7080     2.2050    -0.0250 br         1 2JM      -0.012100
      7 C12         -2.1010    -0.2230     0.0290 cd         1 2JM      -0.047900
      8 BR2         -3.4790    -1.4130    -0.3030 br         1 2JM      -0.024100
      9 C11         -0.7370    -0.5380     0.2270 cd         1 2JM      -0.054900
     10 BR3         -0.0150    -2.2440     0.2650 br         1 2JM      -0.036100
     11 N14         -0.9770     1.6410     0.3950 na         1 2JM      -0.126100
     12 C3           1.3470     0.8980     0.7700 ca         1 2JM      -0.081000
     13 C2           1.6770     1.5490     1.9550 ca         1 2JM      -0.062000
     14 O2           1.9760    -0.0540    -1.2680 oh         1 2JM      -0.467100
     15 BR8          5.0760     0.2850    -0.9520 br         1 2JM      -0.091100
     16 C1           2.9980     1.8150     2.2790 ca         1 2JM      -0.172000
     17 H1           5.0400     1.6170     1.6640 ha         1 2JM       0.150000
     18 H2          -0.7550     2.6220     0.4830 hn         1 2JM       0.312700
     19 H3           0.8860     1.8350     2.6360 ha         1 2JM       0.141000
     20 H4           2.7250    -0.3430    -1.8050 ho         1 2JM       0.445000
     21 H5           3.2460     2.3140     3.2050 ha         1 2JM       0.144000
@<TRIPOS>BOND
     1     1     2 ar  
     2     1    12 ar  
     3     1    14 1   
     4     2     3 ar  
     5     2    15 1   
     6     3    16 ar  
     7     3    17 1   
     8     4     9 2   
     9     4    11 1   
    10     4    12 1   
    11     5     6 1   
    12     5     7 2   
    13     5    11 1   
    14     7     8 1   
    15     7     9 1   
    16     9    10 1   
    17    11    18 1   
    18    12    13 ar  
    19    13    16 ar  
    20    13    19 1   
    21    14    20 1   
    22    16    21 1   
@<TRIPOS>SUBSTRUCTURE
     1 2JM         1 TEMP              0 ****  ****    0 ROOT
