@<TRIPOS>MOLECULE
2JM
   21    22     1     0     0
SMALL
No Charge or Current Charge


@<TRIPOS>ATOM
      1 C4           2.3510     0.5400    -0.1540 ca         1 2JM       0.209100
      2 C5           3.7030     0.7210     0.2000 ca         1 2JM      -0.127900
      3 C6           4.0390     1.3130     1.4290 ca         1 2JM      -0.026000
      4 C10         -0.0890     0.7760     0.4060 cc         1 2JM      -0.059000
      5 C13         -2.3090     1.1500     0.0990 cc         1 2JM      -0.098900
      6 Br1         -3.9440     2.0710    -0.0940 br         1 2JM      -0.012100
      7 C12         -2.0870    -0.2030     0.0680 cd         1 2JM      -0.047900
      8 Br2         -3.4010    -1.5380    -0.1790 br         1 2JM      -0.024100
      9 C11         -0.7080    -0.4420     0.2770 cd         1 2JM      -0.054900
     10 Br3          0.0960    -2.1510     0.4070 br         1 2JM      -0.036100
     11 N14         -1.0770     1.7550     0.3430 na         1 2JM      -0.075000
     12 C3           1.3260     0.9470     0.7320 ca         1 2JM      -0.081000
     13 C2           1.6740     1.5540     1.9550 ca         1 2JM      -0.044000
     14 O2           2.0440    -0.0030    -1.3710 oh         1 2JM      -0.506100
     15 Br8          5.1140     0.1760    -0.9830 br         1 2JM      -0.091100
     16 C1           3.0230     1.7320     2.3030 ca         1 2JM      -0.154000
     17 H1           5.0830     1.4530     1.7020 ha         1 2JM       0.132000
     18 H2          -0.9220     2.7530     0.4440 hn         1 2JM       0.363000
     19 H3           0.8950     1.8760     2.6420 ha         1 2JM       0.123000
     20 H4           2.8900    -0.2040    -1.8250 ho         1 2JM       0.484000
     21 H5           3.2820     2.1950     3.2530 ha         1 2JM       0.126000
@<TRIPOS>BOND
     1     1     2 ar  
     2     1    12 ar  
     3     1    14 1   
     4     2     3 ar  
     5     2    15 1   
     6     3    16 ar  
     7     3    17 1   
     8     4     9 2   
     9     4    11 1   
    10     4    12 1   
    11     5     6 1   
    12     5     7 2   
    13     5    11 1   
    14     7     8 1   
    15     7     9 1   
    16     9    10 1   
    17    11    18 1   
    18    12    13 ar  
    19    13    16 ar  
    20    13    19 1   
    21    14    20 1   
    22    16    21 1   
@<TRIPOS>SUBSTRUCTURE
     1 2JM         1 TEMP              0 ****  ****    0 ROOT
