@<TRIPOS>MOLECULE
2JN
   24    23     1     0     0
SMALL
No Charge or Current Charge


@<TRIPOS>ATOM
      1 OAE         -2.4700    -1.1990     0.8200 o          1 2JN      -0.730500
      2 CAG         -2.0420    -0.5280    -0.1120 c          1 2JN       0.728000
      3 CAQ         -0.7620     0.4120     0.1140 c3         1 2JN       0.038200
      4 CAA         -0.7680     0.9590     1.5720 c3         1 2JN      -0.043100
      5 NAC         -0.7150     1.6000    -0.8120 n8         1 2JN      -0.989200
      6 CAO          0.5080    -0.4590    -0.1550 c3         1 2JN      -0.097400
      7 CAM          1.8880     0.2260     0.0450 c3         1 2JN      -0.077400
      8 CAK          3.0730    -0.7140    -0.2710 c3         1 2JN      -0.078400
      9 CAI          4.4460    -0.0450    -0.0690 c3         1 2JN      -0.086100
     10 O1          -2.6170    -0.4660    -1.1930 o          1 2JN      -0.730500
     11 H1          -0.6250     0.1500     2.2980 hc         1 2JN       0.015033
     12 H2           0.0280     1.6960     1.7330 hc         1 2JN       0.015033
     13 H3          -1.7240     1.4500     1.7970 hc         1 2JN       0.015033
     14 H4           0.1970     1.6090    -1.2790 hn         1 2JN       0.376500
     15 H5          -1.3770     1.4110    -1.5750 hn         1 2JN       0.376500
     16 H7           0.4660    -1.3410     0.4970 hc         1 2JN       0.043200
     17 H8           0.4550    -0.8460    -1.1810 hc         1 2JN       0.043200
     18 H9           1.9640     1.1130    -0.5950 hc         1 2JN       0.026200
     19 H10          1.9840     0.5680     1.0830 hc         1 2JN       0.026200
     20 H11          3.0130    -1.6030     0.3690 hc         1 2JN       0.033200
     21 H12          2.9950    -1.0610    -1.3090 hc         1 2JN       0.033200
     22 H13          4.5520     0.8290    -0.7230 hc         1 2JN       0.020367
     23 H14          4.5690     0.2820     0.9700 hc         1 2JN       0.020367
     24 H15          5.2520    -0.7500    -0.3050 hc         1 2JN       0.020367
@<TRIPOS>BOND
     1     1     2 1   
     2     2     3 1   
     3     2    10 1   
     4     3     4 1   
     5     3     5 1   
     6     3     6 1   
     7     4    11 1   
     8     4    12 1   
     9     4    13 1   
    10     5    14 1   
    11     5    15 1   
    12     6     7 1   
    13     6    16 1   
    14     6    17 1   
    15     7     8 1   
    16     7    18 1   
    17     7    19 1   
    18     8     9 1   
    19     8    20 1   
    20     8    21 1   
    21     9    22 1   
    22     9    23 1   
    23     9    24 1   
@<TRIPOS>SUBSTRUCTURE
     1 2JN         1 TEMP              0 ****  ****    0 ROOT
