@<TRIPOS>MOLECULE
2JN
   24    23     1     0     0
SMALL
bcc


@<TRIPOS>ATOM
      1 OAE         -2.3750    -1.1860     0.8310 o          1 2JN      -0.835800
      2 CAG         -1.9780    -0.4970    -0.1290 c          1 2JN       0.938600
      3 CAQ         -0.7450     0.4150     0.1160 c3         1 2JN       0.038200
      4 CAA         -0.7390     0.9530     1.5440 c3         1 2JN      -0.043100
      5 NAC         -0.8250     1.5540    -0.7950 n8         1 2JN      -0.878800
      6 CAO          0.4940    -0.4790    -0.1300 c3         1 2JN      -0.097400
      7 CAM          1.8480     0.2020     0.0350 c3         1 2JN      -0.077400
      8 CAK          3.0150    -0.7340    -0.2610 c3         1 2JN      -0.078400
      9 CAI          4.3700    -0.0550    -0.1210 c3         1 2JN      -0.086100
     10 O1          -2.4480    -0.5100    -1.2860 o          1 2JN      -0.835800
     11 H1          -0.5910     0.1570     2.2720 hc         1 2JN       0.015033
     12 H2           0.0590     1.6860     1.6870 hc         1 2JN       0.015033
     13 H3          -1.6800     1.4530     1.7770 hc         1 2JN       0.015033
     14 H4           0.0530     2.0590    -0.7970 hn         1 2JN       0.321300
     15 H5          -0.9630     1.2070    -1.7350 hn         1 2JN       0.321300
     16 H7           0.4470    -1.3380     0.5500 hc         1 2JN       0.043200
     17 H8           0.4280    -0.8880    -1.1450 hc         1 2JN       0.043200
     18 H9           1.9170     1.0660    -0.6340 hc         1 2JN       0.026200
     19 H10          1.9560     0.5900     1.0520 hc         1 2JN       0.026200
     20 H11          2.9690    -1.5960     0.4120 hc         1 2JN       0.033200
     21 H12          2.9100    -1.1370    -1.2740 hc         1 2JN       0.033200
     22 H13          4.4660     0.7840    -0.8130 hc         1 2JN       0.020367
     23 H14          4.5140     0.3340     0.8890 hc         1 2JN       0.020367
     24 H15          5.1880    -0.7470    -0.3270 hc         1 2JN       0.020367
@<TRIPOS>BOND
     1     1     2 1   
     2     2     3 1   
     3     2    10 1   
     4     3     4 1   
     5     3     5 1   
     6     3     6 1   
     7     4    11 1   
     8     4    12 1   
     9     4    13 1   
    10     5    14 1   
    11     5    15 1   
    12     6     7 1   
    13     6    16 1   
    14     6    17 1   
    15     7     8 1   
    16     7    18 1   
    17     7    19 1   
    18     8     9 1   
    19     8    20 1   
    20     8    21 1   
    21     9    22 1   
    22     9    23 1   
    23     9    24 1   
@<TRIPOS>SUBSTRUCTURE
     1 2JN         1 TEMP              0 ****  ****    0 ROOT
