@<TRIPOS>MOLECULE
2JP
   29    30     1     0     0
SMALL
No Charge or Current Charge


@<TRIPOS>ATOM
      1 C6         335.4890    33.2650   154.6330 ca         1 2JP      -0.229000
      2 C2         335.0680    31.9290   154.6990 ca         1 2JP       0.022000
      3 C5         335.6950    30.9220   153.9450 ca         1 2JP      -0.115000
      4 C7         335.2430    29.5940   154.0400 ca         1 2JP      -0.094000
      5 C8         334.1670    29.2750   154.8880 ca         1 2JP      -0.139000
      6 C3         333.5400    30.2820   155.6450 ca         1 2JP      -0.066000
      7 C1         333.9930    31.6120   155.5490 ca         1 2JP      -0.136000
      8 C4         333.3950    32.6450   156.2980 ca         1 2JP       0.387900
      9 N1         333.8010    33.9330   156.2350 nb         1 2JP      -0.653000
     10 C10        334.8130    34.2280   155.3950 ca         1 2JP       0.500900
     11 N2         335.2490    35.5590   155.4060 ns         1 2JP      -0.338900
     12 C12        334.5380    36.7310   155.5540 c          1 2JP       0.605100
     13 O2         333.3160    36.7840   155.6270 o          1 2JP      -0.571100
     14 C13        335.4050    38.0000   155.5530 c3         1 2JP      -0.133400
     15 C11        335.5220    38.6370   156.9680 c3         1 2JP      -0.211400
     16 C9         336.4010    39.8970   156.9220 c          1 2JP       0.722000
     17 O3         335.8630    40.9650   156.6770 o          1 2JP      -0.735000
     18 O1         337.6060    39.7620   157.0700 o          1 2JP      -0.735000
     19 H1         336.3220    33.5570   153.9990 ha         1 2JP       0.122000
     20 H2         336.5280    31.1650   153.2890 ha         1 2JP       0.113000
     21 H3         335.7250    28.8120   153.4570 ha         1 2JP       0.104000
     22 H4         333.8180    28.2470   154.9600 ha         1 2JP       0.106000
     23 H5         332.7100    30.0280   156.3000 ha         1 2JP       0.110000
     24 H6         332.5670    32.4350   156.9740 h4         1 2JP       0.016100
     25 H7         336.2450    35.6700   155.2810 hn         1 2JP       0.158000
     26 H8         336.4160    37.7590   155.2020 hc         1 2JP       0.064200
     27 H9         334.9470    38.7340   154.8790 hc         1 2JP       0.064200
     28 H10        334.4990    38.8980   157.2680 hc         1 2JP       0.030700
     29 H11        335.9850    37.8720   157.6040 hc         1 2JP       0.030700
@<TRIPOS>BOND
     1     1     2 ar  
     2     1    10 ar  
     3     1    19 1   
     4     2     3 ar  
     5     2     7 ar  
     6     3     4 ar  
     7     3    20 1   
     8     4     5 ar  
     9     4    21 1   
    10     5     6 ar  
    11     5    22 1   
    12     6     7 ar  
    13     6    23 1   
    14     7     8 ar  
    15     8     9 ar  
    16     8    24 1   
    17     9    10 ar  
    18    10    11 1   
    19    11    12 1   
    20    11    25 1   
    21    12    13 2   
    22    12    14 1   
    23    14    15 1   
    24    14    26 1   
    25    14    27 1   
    26    15    16 1   
    27    15    28 1   
    28    15    29 1   
    29    16    17 1   
    30    16    18 1   
@<TRIPOS>SUBSTRUCTURE
     1 2JP         1 TEMP              0 ****  ****    0 ROOT
