@<TRIPOS>MOLECULE
2JP
   29    30     1     0     0
SMALL
abcg2


@<TRIPOS>ATOM
      1 C6         335.5550    33.3140   154.6830 ca         1 2JP      -0.229000
      2 C2         335.1290    31.9760   154.7770 ca         1 2JP       0.022000
      3 C5         335.8050    30.8970   154.1580 ca         1 2JP      -0.115000
      4 C7         335.3250    29.6230   154.2890 ca         1 2JP      -0.094000
      5 C8         334.1560    29.3580   155.0370 ca         1 2JP      -0.139000
      6 C3         333.4820    30.3820   155.6430 ca         1 2JP      -0.066000
      7 C1         333.9560    31.7060   155.5210 ca         1 2JP      -0.136000
      8 C4         333.3100    32.8050   156.1260 ca         1 2JP       0.387900
      9 N1         333.7290    34.0380   156.0490 nb         1 2JP      -0.653000
     10 C10        334.8380    34.2940   155.3270 ca         1 2JP       0.500900
     11 N2         335.2950    35.6110   155.2940 ns         1 2JP      -0.338900
     12 C12        334.5460    36.7590   155.2830 c          1 2JP       0.605100
     13 O2         333.3320    36.7690   155.2420 o          1 2JP      -0.571100
     14 C13        335.3710    38.0200   155.3840 c3         1 2JP      -0.133400
     15 C11        335.5370    38.4180   156.8510 c3         1 2JP      -0.211400
     16 C9         336.3540    39.7070   157.0900 c          1 2JP       0.722000
     17 O3         336.4020    40.0930   158.2750 o          1 2JP      -0.735000
     18 O1         336.8990    40.2390   156.1050 o          1 2JP      -0.735000
     19 H1         336.4390    33.5620   154.1070 ha         1 2JP       0.122000
     20 H2         336.7020    31.0930   153.5840 ha         1 2JP       0.113000
     21 H3         335.8470    28.8020   153.8140 ha         1 2JP       0.104000
     22 H4         333.8000    28.3400   155.1270 ha         1 2JP       0.106000
     23 H5         332.5840    30.1920   156.2180 ha         1 2JP       0.110000
     24 H6         332.4110    32.6300   156.7120 h4         1 2JP       0.016100
     25 H7         336.2860    35.7240   155.1450 hn         1 2JP       0.158000
     26 H8         336.3510    37.8910   154.9210 hc         1 2JP       0.064200
     27 H9         334.8540    38.8090   154.8390 hc         1 2JP       0.064200
     28 H10        334.5530    38.5400   157.3130 hc         1 2JP       0.030700
     29 H11        336.0190    37.6040   157.4030 hc         1 2JP       0.030700
@<TRIPOS>BOND
     1     1     2 ar  
     2     1    10 ar  
     3     1    19 1   
     4     2     3 ar  
     5     2     7 ar  
     6     3     4 ar  
     7     3    20 1   
     8     4     5 ar  
     9     4    21 1   
    10     5     6 ar  
    11     5    22 1   
    12     6     7 ar  
    13     6    23 1   
    14     7     8 ar  
    15     8     9 ar  
    16     8    24 1   
    17     9    10 ar  
    18    10    11 1   
    19    11    12 1   
    20    11    25 1   
    21    12    13 2   
    22    12    14 1   
    23    14    15 1   
    24    14    26 1   
    25    14    27 1   
    26    15    16 1   
    27    15    28 1   
    28    15    29 1   
    29    16    17 1   
    30    16    18 1   
@<TRIPOS>SUBSTRUCTURE
     1 2JP         1 TEMP              0 ****  ****    0 ROOT
