@<TRIPOS>MOLECULE
2JQ
   33    34     1     0     0
SMALL
abcg2


@<TRIPOS>ATOM
      1 C13          2.4460     1.3390     1.0580 ca         1 2JQ      -0.096000
      2 C15          2.5260    -0.4380    -0.5610 ca         1 2JQ      -0.044000
      3 C17          0.5060    -1.8250    -1.1590 c          1 2JQ       0.708600
      4 C20          4.6270     0.7860    -0.0660 c3         1 2JQ       0.352300
      5 O01         -1.3980    -0.6200     1.8100 o          1 2JQ      -0.542100
      6 C02         -1.0150    -0.1020     0.7840 c          1 2JQ       0.673700
      7 N03         -1.8030     0.5180    -0.1420 ns         1 2JQ      -0.305900
      8 C04         -3.1870     0.5300    -0.2630 ca         1 2JQ       0.527900
      9 C05         -3.7270     1.1360    -1.4040 ca         1 2JQ      -0.227000
     10 C06         -5.0990     1.1630    -1.5280 ca         1 2JQ      -0.049000
     11 C07         -5.8890     0.5970    -0.5330 ca         1 2JQ      -0.227000
     12 C08         -5.2590     0.0180     0.5590 ca         1 2JQ       0.393300
     13 C09         -6.0410    -0.6260     1.6620 c3         1 2JQ      -0.141400
     14 N10         -3.9300    -0.0070     0.6850 nb         1 2JQ      -0.689000
     15 C11          0.4540     0.0950     0.5120 ca         1 2JQ      -0.106600
     16 C12          1.0920     1.0980     1.2300 ca         1 2JQ      -0.116000
     17 C14          3.1640     0.5650     0.1580 ca         1 2JQ      -0.212300
     18 C16          1.1720    -0.6890    -0.3910 ca         1 2JQ      -0.119600
     19 O18         -0.6590    -2.0940    -0.8130 o          1 2JQ      -0.697500
     20 O19          1.1820    -2.3770    -2.0420 o          1 2JQ      -0.697500
     21 F21          4.8870     1.1470    -1.3320 f          1 2JQ      -0.124667
     22 F22          5.1330     1.7390     0.7220 f          1 2JQ      -0.124667
     23 F23          5.3370    -0.3290     0.1620 f          1 2JQ      -0.124667
     24 H1           2.9170     2.1290     1.6270 ha         1 2JQ       0.109000
     25 H2           3.0750    -1.0500    -1.2660 ha         1 2JQ       0.149000
     26 H3          -1.3120     0.9090    -0.9310 hn         1 2JQ       0.155000
     27 H4          -3.0880     1.5680    -2.1630 ha         1 2JQ       0.119000
     28 H5          -5.5550     1.6230    -2.3950 ha         1 2JQ       0.102000
     29 H6          -6.9680     0.6060    -0.6070 ha         1 2JQ       0.108000
     30 H7          -5.8750    -1.7050     1.6690 hc         1 2JQ       0.045367
     31 H8          -5.7240    -0.2470     2.6340 hc         1 2JQ       0.045367
     32 H9          -7.1100    -0.4510     1.5560 hc         1 2JQ       0.045367
     33 H10          0.5330     1.7070     1.9300 ha         1 2JQ       0.108000
@<TRIPOS>BOND
     1     1    16 ar  
     2     1    17 ar  
     3     1    24 1   
     4     2    17 ar  
     5     2    18 ar  
     6     2    25 1   
     7     3    18 1   
     8     3    19 1   
     9     3    20 1   
    10     4    17 1   
    11     4    21 1   
    12     4    22 1   
    13     4    23 1   
    14     5     6 2   
    15     6     7 1   
    16     6    15 1   
    17     7     8 1   
    18     7    26 1   
    19     8     9 ar  
    20     8    14 ar  
    21     9    10 ar  
    22     9    27 1   
    23    10    11 ar  
    24    10    28 1   
    25    11    12 ar  
    26    11    29 1   
    27    12    13 1   
    28    12    14 ar  
    29    13    30 1   
    30    13    31 1   
    31    13    32 1   
    32    15    16 ar  
    33    15    18 ar  
    34    16    33 1   
@<TRIPOS>SUBSTRUCTURE
     1 2JQ         1 TEMP              0 ****  ****    0 ROOT
