@<TRIPOS>MOLECULE
2JQ
   33    34     1     0     0
SMALL
No Charge or Current Charge


@<TRIPOS>ATOM
      1 C13          2.7150     1.1610     1.3010 ca         1 2JQ      -0.096000
      2 C15          2.4470    -0.2830    -0.6250 ca         1 2JQ      -0.044000
      3 C17          0.2450    -1.1940    -1.3530 c          1 2JQ       0.708600
      4 C20          4.8100     0.4410     0.0210 c3         1 2JQ       0.352300
      5 O01         -1.4780     0.7440     1.9920 o          1 2JQ      -0.542100
      6 C02         -1.0370     0.5580     0.8620 c          1 2JQ       0.673700
      7 N03         -1.8450     0.4740    -0.2520 ns         1 2JQ      -0.305900
      8 C04         -3.2390     0.4820    -0.3720 ca         1 2JQ       0.527900
      9 C05         -3.8450     0.9550    -1.5460 ca         1 2JQ      -0.227000
     10 C06         -5.2410     0.8930    -1.6660 ca         1 2JQ      -0.049000
     11 C07         -5.9640     0.3390    -0.6010 ca         1 2JQ      -0.227000
     12 C08         -5.2740    -0.1350     0.5300 ca         1 2JQ       0.393300
     13 C09         -6.0160    -0.7590     1.6970 c3         1 2JQ      -0.141400
     14 N10         -3.9310    -0.0770     0.6410 nb         1 2JQ      -0.689000
     15 C11          0.4630     0.4570     0.6170 ca         1 2JQ      -0.106600
     16 C12          1.3250     1.1610     1.4890 ca         1 2JQ      -0.116000
     17 C14          3.2900     0.4530     0.2310 ca         1 2JQ      -0.212300
     18 C16          1.0470    -0.2990    -0.4440 ca         1 2JQ      -0.119600
     19 O18         -0.3840    -2.1110    -0.8460 o          1 2JQ      -0.697500
     20 O19          0.2780    -0.9700    -2.5530 o          1 2JQ      -0.697500
     21 F21          5.1460     0.3510    -1.2860 f          1 2JQ      -0.124667
     22 F22          5.4060     1.5590     0.4950 f          1 2JQ      -0.124667
     23 F23          5.3840    -0.6090     0.6500 f          1 2JQ      -0.124667
     24 H1           3.3410     1.7210     1.9930 ha         1 2JQ       0.109000
     25 H2           2.8780    -0.8710    -1.4350 ha         1 2JQ       0.149000
     26 H3          -1.3580     0.4120    -1.1340 hn         1 2JQ       0.155000
     27 H4          -3.2390     1.3660    -2.3480 ha         1 2JQ       0.119000
     28 H5          -5.7450     1.2590    -2.5590 ha         1 2JQ       0.102000
     29 H6          -7.0470     0.2680    -0.6520 ha         1 2JQ       0.108000
     30 H7          -5.9880    -1.8530     1.6330 hc         1 2JQ       0.045367
     31 H8          -5.5730    -0.4640     2.6550 hc         1 2JQ       0.045367
     32 H9          -7.0680    -0.4500     1.7100 hc         1 2JQ       0.045367
     33 H10          0.9110     1.7350     2.3160 ha         1 2JQ       0.108000
@<TRIPOS>BOND
     1     1    16 ar  
     2     1    17 ar  
     3     1    24 1   
     4     2    17 ar  
     5     2    18 ar  
     6     2    25 1   
     7     3    18 1   
     8     3    19 1   
     9     3    20 1   
    10     4    17 1   
    11     4    21 1   
    12     4    22 1   
    13     4    23 1   
    14     5     6 2   
    15     6     7 1   
    16     6    15 1   
    17     7     8 1   
    18     7    26 1   
    19     8     9 ar  
    20     8    14 ar  
    21     9    10 ar  
    22     9    27 1   
    23    10    11 ar  
    24    10    28 1   
    25    11    12 ar  
    26    11    29 1   
    27    12    13 1   
    28    12    14 ar  
    29    13    30 1   
    30    13    31 1   
    31    13    32 1   
    32    15    16 ar  
    33    15    18 ar  
    34    16    33 1   
@<TRIPOS>SUBSTRUCTURE
     1 2JQ         1 TEMP              0 ****  ****    0 ROOT
