@<TRIPOS>MOLECULE
2JR
   50    54     1     0     0
SMALL
No Charge or Current Charge


@<TRIPOS>ATOM
      1 CAH         -3.4690     1.4880     0.8200 c6         1 2JR      -0.064900
      2 CAI         -4.9940     1.5680     0.5410 c6         1 2JR      -0.066400
      3 CAJ         -5.2740     1.7900    -0.9630 c6         1 2JR      -0.070400
      4 CAT         -4.5810     0.7080    -1.8220 c6         1 2JR      -0.066400
      5 CAS         -3.0620     0.6370    -1.5140 c6         1 2JR      -0.064900
      6 CAR         -2.7530     0.3520    -0.0010 c6         1 2JR       0.300500
      7 NAU         -3.2860    -1.0000     0.4100 n3         1 2JR      -0.741600
      8 CAV         -2.8070    -2.1940    -0.3230 c5         1 2JR       0.170800
      9 CAY         -3.6410    -3.2970     0.3670 c5         1 2JR      -0.078900
     10 CAX         -3.6380    -2.8550     1.8620 c5         1 2JR      -0.078900
     11 CAW         -3.0980    -1.3960     1.8280 c5         1 2JR       0.170800
     12 CAQ         -1.2310     0.4300     0.2070 cc         1 2JR      -0.259300
     13 SAP         -0.0460    -0.2180    -0.9030 ss         1 2JR      -0.052400
     14 CAG         -0.5880     1.1000     1.2350 cd         1 2JR       0.282900
     15 NAF          0.8030     1.1240     1.1710 nd         1 2JR      -0.655000
     16 CAO          1.2190     0.4600     0.1000 cc         1 2JR       0.508900
     17 CAN          2.6470     0.3070    -0.2340 ca         1 2JR      -0.175500
     18 CAM          3.6380     0.8860     0.6020 ca         1 2JR      -0.006000
     19 CAL          4.9860     0.7210     0.2550 ca         1 2JR      -0.110800
     20 CAK          6.1750     1.1860     0.9010 cc         1 2JR      -0.229200
     21 CAA          7.2510     0.7440     0.1410 cd         1 2JR      -0.166100
     22 NAB          6.7560     0.0110    -0.9670 na         1 2JR      -0.221700
     23 CAC          5.3750     0.0270    -0.8520 ca         1 2JR      -0.039200
     24 CAD          4.4330    -0.5600    -1.7030 ca         1 2JR      -0.131000
     25 CAE          3.0640    -0.4170    -1.3890 ca         1 2JR      -0.077000
     26 H1          -3.0180     2.4600     0.5710 hc         1 2JR       0.042700
     27 H2          -3.3130     1.3580     1.8980 hc         1 2JR       0.042700
     28 H3          -5.4860     0.6460     0.8790 hc         1 2JR       0.044450
     29 H4          -5.4360     2.3860     1.1250 hc         1 2JR       0.044450
     30 H5          -6.3570     1.7790    -1.1480 hc         1 2JR       0.035700
     31 H6          -4.9160     2.7850    -1.2620 hc         1 2JR       0.035700
     32 H7          -5.0480    -0.2690    -1.6370 hc         1 2JR       0.044450
     33 H8          -4.7340     0.9270    -2.8870 hc         1 2JR       0.044450
     34 H9          -2.6020    -0.1180    -2.1630 hc         1 2JR       0.042700
     35 H10         -2.5980     1.5900    -1.8020 hc         1 2JR       0.042700
     36 H12         -3.0130    -2.1560    -1.4010 h1         1 2JR       0.037200
     37 H13         -1.7320    -2.3640    -0.1770 h1         1 2JR       0.037200
     38 H14         -4.6610    -3.3180    -0.0320 hc         1 2JR       0.045200
     39 H15         -3.2120    -4.2940     0.2200 hc         1 2JR       0.045200
     40 H16         -4.6470    -2.8990     2.2860 hc         1 2JR       0.045200
     41 H17         -3.0000    -3.4960     2.4800 hc         1 2JR       0.045200
     42 H18         -2.0360    -1.3720     2.1110 h1         1 2JR       0.037200
     43 H19         -3.6490    -0.7540     2.5280 h1         1 2JR       0.037200
     44 H20         -1.0690     1.6120     2.0580 h4         1 2JR       0.039100
     45 H21          3.3750     1.4480     1.4950 ha         1 2JR       0.139000
     46 H22          6.2420     1.7760     1.8140 ha         1 2JR       0.209000
     47 H23          8.3170     0.8930     0.3030 h4         1 2JR       0.212000
     48 H24          7.3010    -0.4350    -1.6990 hn         1 2JR       0.350000
     49 H25          4.7450    -1.1140    -2.5850 ha         1 2JR       0.116000
     50 H26          2.3370    -0.8760    -2.0540 ha         1 2JR       0.113000
@<TRIPOS>BOND
     1     1     2 1   
     2     1     6 1   
     3     1    26 1   
     4     1    27 1   
     5     2     3 1   
     6     2    28 1   
     7     2    29 1   
     8     3     4 1   
     9     3    30 1   
    10     3    31 1   
    11     4     5 1   
    12     4    32 1   
    13     4    33 1   
    14     5     6 1   
    15     5    34 1   
    16     5    35 1   
    17     6     7 1   
    18     6    12 1   
    19     7     8 1   
    20     7    11 1   
    21     8     9 1   
    22     8    36 1   
    23     8    37 1   
    24     9    10 1   
    25     9    38 1   
    26     9    39 1   
    27    10    11 1   
    28    10    40 1   
    29    10    41 1   
    30    11    42 1   
    31    11    43 1   
    32    12    13 1   
    33    12    14 2   
    34    13    16 1   
    35    14    15 1   
    36    14    44 1   
    37    15    16 2   
    38    16    17 1   
    39    17    18 ar  
    40    17    25 ar  
    41    18    19 ar  
    42    18    45 1   
    43    19    20 1   
    44    19    23 ar  
    45    20    21 2   
    46    20    46 1   
    47    21    22 1   
    48    21    47 1   
    49    22    23 1   
    50    22    48 1   
    51    23    24 ar  
    52    24    25 ar  
    53    24    49 1   
    54    25    50 1   
@<TRIPOS>SUBSTRUCTURE
     1 2JR         1 TEMP              0 ****  ****    0 ROOT
