@<TRIPOS>MOLECULE
2JR
   50    54     1     0     0
SMALL
bcc


@<TRIPOS>ATOM
      1 CAH         -3.4780     1.5130     0.7690 c6         1 2JR      -0.064900
      2 CAI         -4.9850     1.4620     0.5420 c6         1 2JR      -0.066400
      3 CAJ         -5.3240     1.6130    -0.9360 c6         1 2JR      -0.070400
      4 CAT         -4.5700     0.5970    -1.7870 c6         1 2JR      -0.066400
      5 CAS         -3.0720     0.6620    -1.5180 c6         1 2JR      -0.064900
      6 CAR         -2.7340     0.4290    -0.0350 c6         1 2JR       0.300500
      7 NAU         -3.2170    -0.8870     0.3750 n3         1 2JR      -0.741600
      8 CAV         -2.7680    -2.0500    -0.3680 c5         1 2JR       0.170800
      9 CAY         -3.4120    -3.2140     0.3840 c5         1 2JR      -0.078900
     10 CAX         -3.5620    -2.7000     1.8290 c5         1 2JR      -0.078900
     11 CAW         -3.0860    -1.2450     1.7750 c5         1 2JR       0.170800
     12 CAQ         -1.2420     0.5790     0.1920 cc         1 2JR      -0.179700
     13 SAP         -0.0630     0.0790    -0.9700 ss         1 2JR      -0.197300
     14 CAG         -0.5770     1.0220     1.2950 cd         1 2JR       0.348200
     15 NAF          0.7830     0.9760     1.2530 nd         1 2JR      -0.655000
     16 CAO          1.2130     0.4970     0.1250 cc         1 2JR       0.508900
     17 CAN          2.6240     0.3230    -0.2170 ca         1 2JR      -0.175500
     18 CAM          3.5950     0.8300     0.6380 ca         1 2JR      -0.024000
     19 CAL          4.9420     0.6610     0.3210 ca         1 2JR      -0.110800
     20 CAK          6.1670     1.0420     0.9540 cc         1 2JR      -0.179200
     21 CAA          7.1750     0.5880     0.1540 cd         1 2JR      -0.116100
     22 NAB          6.6520    -0.0500    -0.9350 na         1 2JR      -0.171400
     23 CAC          5.2930    -0.0240    -0.8660 ca         1 2JR      -0.039200
     24 CAD          4.3290    -0.5370    -1.7310 ca         1 2JR      -0.149000
     25 CAE          3.0050    -0.3570    -1.3940 ca         1 2JR      -0.095000
     26 H1          -3.0920     2.4870     0.4550 hc         1 2JR       0.042700
     27 H2          -3.2590     1.4320     1.8360 hc         1 2JR       0.042700
     28 H3          -5.3840     0.5180     0.9200 hc         1 2JR       0.044450
     29 H4          -5.4590     2.2600     1.1190 hc         1 2JR       0.044450
     30 H5          -6.4020     1.5150    -1.0920 hc         1 2JR       0.035700
     31 H6          -5.0530     2.6230    -1.2640 hc         1 2JR       0.035700
     32 H7          -4.9400    -0.4100    -1.5780 hc         1 2JR       0.044450
     33 H8          -4.7530     0.7850    -2.8480 hc         1 2JR       0.044450
     34 H9          -2.5480    -0.0510    -2.1600 hc         1 2JR       0.042700
     35 H10         -2.6940     1.6510    -1.7960 hc         1 2JR       0.042700
     36 H12         -3.0850    -2.0060    -1.4100 h1         1 2JR       0.037200
     37 H13         -1.6720    -2.1630    -0.3620 h1         1 2JR       0.037200
     38 H14         -4.3860    -3.4490    -0.0450 hc         1 2JR       0.045200
     39 H15         -2.8030    -4.1160     0.3180 hc         1 2JR       0.045200
     40 H16         -4.6000    -2.7580     2.1550 hc         1 2JR       0.045200
     41 H17         -2.9700    -3.2770     2.5390 hc         1 2JR       0.045200
     42 H18         -2.0450    -1.1720     2.1270 h1         1 2JR       0.037200
     43 H19         -3.6890    -0.5950     2.4110 h1         1 2JR       0.037200
     44 H20         -1.0600     1.4040     2.1830 h4         1 2JR       0.039100
     45 H21          3.3030     1.3520     1.5400 ha         1 2JR       0.157000
     46 H22          6.2830     1.5810     1.8800 ha         1 2JR       0.159000
     47 H23          8.2430     0.6690     0.2780 h4         1 2JR       0.162000
     48 H24          7.1930    -0.4700    -1.6730 hn         1 2JR       0.299700
     49 H25          4.6030    -1.0640    -2.6360 ha         1 2JR       0.134000
     50 H26          2.2490    -0.7610    -2.0560 ha         1 2JR       0.131000
@<TRIPOS>BOND
     1     1     2 1   
     2     1     6 1   
     3     1    26 1   
     4     1    27 1   
     5     2     3 1   
     6     2    28 1   
     7     2    29 1   
     8     3     4 1   
     9     3    30 1   
    10     3    31 1   
    11     4     5 1   
    12     4    32 1   
    13     4    33 1   
    14     5     6 1   
    15     5    34 1   
    16     5    35 1   
    17     6     7 1   
    18     6    12 1   
    19     7     8 1   
    20     7    11 1   
    21     8     9 1   
    22     8    36 1   
    23     8    37 1   
    24     9    10 1   
    25     9    38 1   
    26     9    39 1   
    27    10    11 1   
    28    10    40 1   
    29    10    41 1   
    30    11    42 1   
    31    11    43 1   
    32    12    13 1   
    33    12    14 2   
    34    13    16 1   
    35    14    15 1   
    36    14    44 1   
    37    15    16 2   
    38    16    17 1   
    39    17    18 ar  
    40    17    25 ar  
    41    18    19 ar  
    42    18    45 1   
    43    19    20 1   
    44    19    23 ar  
    45    20    21 2   
    46    20    46 1   
    47    21    22 1   
    48    21    47 1   
    49    22    23 1   
    50    22    48 1   
    51    23    24 ar  
    52    24    25 ar  
    53    24    49 1   
    54    25    50 1   
@<TRIPOS>SUBSTRUCTURE
     1 2JR         1 TEMP              0 ****  ****    0 ROOT
