@<TRIPOS>MOLECULE
2JT
   67    66     1     0     0
SMALL
bcc


@<TRIPOS>ATOM
      1 C10         -4.4590    -0.4640    -0.3530 c3         1 2JT      -0.068400
      2 C13         -0.6590     0.3930    -0.1160 c3         1 2JT      -0.074400
      3 C15          1.8860     0.4040    -0.0690 c3         1 2JT      -0.074400
      4 C17          4.4310     0.4110    -0.0160 c3         1 2JT      -0.074400
      5 C20          8.2520    -0.4130     0.0120 c3         1 2JT      -0.074400
      6 C21          9.5190     0.4280     0.0980 c3         1 2JT      -0.074400
      7 C22         10.7970    -0.4020     0.0970 c3         1 2JT      -0.074400
      8 C24         13.3440    -0.3800     0.1730 c3         1 2JT      -0.074400
      9 O01         -7.0360    -1.5680    -0.8010 o          1 2JT      -0.552000
     10 C02         -6.9910    -0.4220    -0.4280 c          1 2JT       0.645100
     11 O03         -8.0660     0.3150    -0.1740 os         1 2JT      -0.401900
     12 C04         -9.3700    -0.2540    -0.3540 c3         1 2JT       0.158100
     13 C05         -9.7510    -1.1390     0.8210 c3         1 2JT       0.134400
     14 O06         -9.5720    -0.4620     2.0380 oh         1 2JT      -0.564800
     15 C07        -10.3180     0.8900    -0.6500 c3         1 2JT       0.134400
     16 O08        -10.3810     1.7990     0.4180 oh         1 2JT      -0.564800
     17 C09         -5.7260     0.3630    -0.2090 c3         1 2JT      -0.138400
     18 C11         -3.2030     0.3760    -0.1610 c3         1 2JT      -0.075400
     19 C12         -1.9230    -0.4400    -0.2880 c3         1 2JT      -0.074400
     20 C14          0.6200    -0.4280    -0.2260 c3         1 2JT      -0.074400
     21 C16          3.1630    -0.4230    -0.1540 c3         1 2JT      -0.074400
     22 C18          5.7080    -0.4190    -0.0760 c3         1 2JT      -0.074400
     23 C19          6.9760     0.4180     0.0370 c3         1 2JT      -0.074400
     24 C23         12.0620     0.4450     0.1630 c3         1 2JT      -0.076400
     25 C25         14.5970     0.4830     0.2330 c3         1 2JT      -0.088100
     26 H1          -4.4660    -1.2790     0.3770 hc         1 2JT       0.052700
     27 H2          -4.4330    -0.9340    -1.3390 hc         1 2JT       0.052700
     28 H3          -0.6440     1.1900    -0.8680 hc         1 2JT       0.037200
     29 H4          -0.6840     0.8950     0.8570 hc         1 2JT       0.037200
     30 H5           1.9060     1.1840    -0.8380 hc         1 2JT       0.036700
     31 H6           1.8590     0.9290     0.8930 hc         1 2JT       0.036700
     32 H7           4.4540     1.1700    -0.8060 hc         1 2JT       0.036700
     33 H8           4.4030     0.9620     0.9310 hc         1 2JT       0.036700
     34 H9           8.2770    -1.0140    -0.9050 hc         1 2JT       0.036700
     35 H10          8.2340    -1.1290     0.8420 hc         1 2JT       0.036700
     36 H11          9.5440     1.1320    -0.7420 hc         1 2JT       0.036700
     37 H12          9.4860     1.0420     1.0050 hc         1 2JT       0.036700
     38 H13         10.7790    -1.0950     0.9460 hc         1 2JT       0.036700
     39 H14         10.8250    -1.0260    -0.8030 hc         1 2JT       0.036700
     40 H15         13.3270    -1.0630     1.0270 hc         1 2JT       0.036700
     41 H16         13.3740    -1.0120    -0.7200 hc         1 2JT       0.036700
     42 H17         -9.3830    -0.8900    -1.2450 h1         1 2JT       0.061700
     43 H18        -10.7930    -1.4510     0.6620 h1         1 2JT       0.024950
     44 H19         -9.1450    -2.0520     0.7800 h1         1 2JT       0.024950
     45 H20         -9.6870    -1.1020     2.7450 ho         1 2JT       0.398000
     46 H21         -9.9830     1.3750    -1.5770 h1         1 2JT       0.024950
     47 H22        -11.2950     0.4410    -0.8710 h1         1 2JT       0.024950
     48 H23        -10.9110     2.5480     0.1310 ho         1 2JT       0.398000
     49 H24         -5.7710     0.8320     0.7790 hc         1 2JT       0.073200
     50 H25         -5.7220     1.1930    -0.9240 hc         1 2JT       0.073200
     51 H26         -3.1910     1.1870    -0.8980 hc         1 2JT       0.037700
     52 H27         -3.2290     0.8590     0.8210 hc         1 2JT       0.037700
     53 H28         -1.9030    -0.9320    -1.2670 hc         1 2JT       0.039700
     54 H29         -1.9310    -1.2450     0.4550 hc         1 2JT       0.039700
     55 H30          0.6080    -1.2190     0.5320 hc         1 2JT       0.037700
     56 H31          0.6400    -0.9400    -1.1950 hc         1 2JT       0.037700
     57 H32          3.1480    -1.1920     0.6260 hc         1 2JT       0.037700
     58 H33          3.1850    -0.9610    -1.1080 hc         1 2JT       0.037700
     59 H34          5.6920    -1.1650     0.7270 hc         1 2JT       0.037200
     60 H35          5.7290    -0.9850    -1.0140 hc         1 2JT       0.037200
     61 H36          6.9440     1.0040     0.9630 hc         1 2JT       0.036700
     62 H37          7.0020     1.1480    -0.7810 hc         1 2JT       0.036700
     63 H38         12.0820     1.1330    -0.6900 hc         1 2JT       0.036700
     64 H39         12.0310     1.0760     1.0590 hc         1 2JT       0.036700
     65 H40         14.6520     1.1560    -0.6250 hc         1 2JT       0.031367
     66 H41         14.6070     1.0990     1.1350 hc         1 2JT       0.031367
     67 H42         15.5050    -0.1220     0.2370 hc         1 2JT       0.031367
@<TRIPOS>BOND
     1     1    17 1   
     2     1    18 1   
     3     1    26 1   
     4     1    27 1   
     5     2    19 1   
     6     2    20 1   
     7     2    28 1   
     8     2    29 1   
     9     3    20 1   
    10     3    21 1   
    11     3    30 1   
    12     3    31 1   
    13     4    21 1   
    14     4    22 1   
    15     4    32 1   
    16     4    33 1   
    17     5     6 1   
    18     5    23 1   
    19     5    34 1   
    20     5    35 1   
    21     6     7 1   
    22     6    36 1   
    23     6    37 1   
    24     7    24 1   
    25     7    38 1   
    26     7    39 1   
    27     8    24 1   
    28     8    25 1   
    29     8    40 1   
    30     8    41 1   
    31     9    10 2   
    32    10    11 1   
    33    10    17 1   
    34    11    12 1   
    35    12    13 1   
    36    12    15 1   
    37    12    42 1   
    38    13    14 1   
    39    13    43 1   
    40    13    44 1   
    41    14    45 1   
    42    15    16 1   
    43    15    46 1   
    44    15    47 1   
    45    16    48 1   
    46    17    49 1   
    47    17    50 1   
    48    18    19 1   
    49    18    51 1   
    50    18    52 1   
    51    19    53 1   
    52    19    54 1   
    53    20    55 1   
    54    20    56 1   
    55    21    57 1   
    56    21    58 1   
    57    22    23 1   
    58    22    59 1   
    59    22    60 1   
    60    23    61 1   
    61    23    62 1   
    62    24    63 1   
    63    24    64 1   
    64    25    65 1   
    65    25    66 1   
    66    25    67 1   
@<TRIPOS>SUBSTRUCTURE
     1 2JT         1 TEMP              0 ****  ****    0 ROOT
