@<TRIPOS>MOLECULE
2JT
   67    66     1     0     0
SMALL
No Charge or Current Charge


@<TRIPOS>ATOM
      1 C10         -4.7380    -0.0260    -1.0230 c3         1 2JT      -0.068400
      2 C13         -0.8390     0.6460    -0.9450 c3         1 2JT      -0.074400
      3 C15          1.7220     0.5740    -0.6700 c3         1 2JT      -0.074400
      4 C17          4.2820     0.5010    -0.3950 c3         1 2JT      -0.074400
      5 C20          8.0650    -0.3880     0.3510 c3         1 2JT      -0.074400
      6 C21          9.4030     0.3560     0.1530 c3         1 2JT      -0.074400
      7 C22         10.6260    -0.4610     0.6250 c3         1 2JT      -0.074400
      8 C24         13.1870    -0.5330     0.8990 c3         1 2JT      -0.074400
      9 O01         -7.7030    -0.8050    -2.0660 o          1 2JT      -0.503000
     10 C02         -7.2630     0.0180    -1.2750 c          1 2JT       0.596100
     11 O03         -7.8970     0.4140    -0.1260 os         1 2JT      -0.425100
     12 C04         -9.1200    -0.2590     0.2730 c3         1 2JT       0.181300
     13 C05         -8.8270    -1.7350     0.7110 c3         1 2JT       0.157600
     14 O06         -7.6520    -1.8640     1.5360 oh         1 2JT      -0.627000
     15 C07         -9.8290     0.6020     1.3660 c3         1 2JT       0.157600
     16 O08         -8.9980     0.8650     2.5130 oh         1 2JT      -0.627000
     17 C09         -5.9610     0.7910    -1.4990 c3         1 2JT      -0.138400
     18 C11         -3.3990     0.7190    -1.2210 c3         1 2JT      -0.075400
     19 C12         -2.1770    -0.0980    -0.7470 c3         1 2JT      -0.074400
     20 C14          0.3830    -0.1710    -0.4710 c3         1 2JT      -0.074400
     21 C16          2.9440    -0.2430    -0.1970 c3         1 2JT      -0.074400
     22 C18          5.5040    -0.3160     0.0780 c3         1 2JT      -0.074400
     23 C19          6.8430     0.4290    -0.1210 c3         1 2JT      -0.074400
     24 C23         11.9640     0.2840     0.4270 c3         1 2JT      -0.076400
     25 C25         14.5220     0.2090     0.7010 c3         1 2JT      -0.088100
     26 H1          -4.8610    -0.2720     0.0400 hc         1 2JT       0.052700
     27 H2          -4.7050    -0.9780    -1.5690 hc         1 2JT       0.052700
     28 H3          -0.7180     0.8920    -2.0070 hc         1 2JT       0.037200
     29 H4          -0.8710     1.5970    -0.3970 hc         1 2JT       0.037200
     30 H5           1.8430     0.8200    -1.7320 hc         1 2JT       0.036700
     31 H6           1.6900     1.5240    -0.1220 hc         1 2JT       0.036700
     32 H7           4.4030     0.7480    -1.4580 hc         1 2JT       0.036700
     33 H8           4.2510     1.4520     0.1520 hc         1 2JT       0.036700
     34 H9           8.0970    -1.3390    -0.1960 hc         1 2JT       0.036700
     35 H10          7.9440    -0.6350     1.4140 hc         1 2JT       0.036700
     36 H11          9.5240     0.6030    -0.9100 hc         1 2JT       0.036700
     37 H12          9.3720     1.3060     0.7010 hc         1 2JT       0.036700
     38 H13         10.5050    -0.7070     1.6880 hc         1 2JT       0.036700
     39 H14         10.6570    -1.4110     0.0770 hc         1 2JT       0.036700
     40 H15         13.0700    -0.7800     1.9620 hc         1 2JT       0.036700
     41 H16         13.2230    -1.4830     0.3520 hc         1 2JT       0.036700
     42 H17         -9.8150    -0.3020    -0.5760 h1         1 2JT       0.061700
     43 H18         -9.7060    -2.1230     1.2430 h1         1 2JT       0.024950
     44 H19         -8.7110    -2.3510    -0.1900 h1         1 2JT       0.024950
     45 H20         -7.5850    -2.8090     1.7940 ho         1 2JT       0.437000
     46 H21        -10.1370     1.5510     0.9070 h1         1 2JT       0.024950
     47 H22        -10.7460     0.0850     1.6780 h1         1 2JT       0.024950
     48 H23         -9.5140     1.4430     3.1150 ho         1 2JT       0.437000
     49 H24         -5.9870     1.7180    -0.9130 hc         1 2JT       0.073200
     50 H25         -5.8530     1.0110    -2.5670 hc         1 2JT       0.073200
     51 H26         -3.2770     0.9640    -2.2830 hc         1 2JT       0.037700
     52 H27         -3.4310     1.6690    -0.6730 hc         1 2JT       0.037700
     53 H28         -2.1450    -1.0490    -1.2940 hc         1 2JT       0.039700
     54 H29         -2.2990    -0.3440     0.3160 hc         1 2JT       0.039700
     55 H30          0.2620    -0.4170     0.5910 hc         1 2JT       0.037700
     56 H31          0.4150    -1.1210    -1.0190 hc         1 2JT       0.037700
     57 H32          2.8230    -0.4890     0.8660 hc         1 2JT       0.037700
     58 H33          2.9760    -1.1940    -0.7440 hc         1 2JT       0.037700
     59 H34          5.3840    -0.5620     1.1400 hc         1 2JT       0.037200
     60 H35          5.5360    -1.2660    -0.4700 hc         1 2JT       0.037200
     61 H36          6.8110     1.3790     0.4260 hc         1 2JT       0.036700
     62 H37          6.9630     0.6750    -1.1840 hc         1 2JT       0.036700
     63 H38         12.0850     0.5300    -0.6360 hc         1 2JT       0.036700
     64 H39         11.9330     1.2340     0.9750 hc         1 2JT       0.036700
     65 H40         14.6850     0.4400    -0.3590 hc         1 2JT       0.031367
     66 H41         14.5310     1.1500     1.2660 hc         1 2JT       0.031367
     67 H42         15.3580    -0.4080     1.0500 hc         1 2JT       0.031367
@<TRIPOS>BOND
     1     1    17 1   
     2     1    18 1   
     3     1    26 1   
     4     1    27 1   
     5     2    19 1   
     6     2    20 1   
     7     2    28 1   
     8     2    29 1   
     9     3    20 1   
    10     3    21 1   
    11     3    30 1   
    12     3    31 1   
    13     4    21 1   
    14     4    22 1   
    15     4    32 1   
    16     4    33 1   
    17     5     6 1   
    18     5    23 1   
    19     5    34 1   
    20     5    35 1   
    21     6     7 1   
    22     6    36 1   
    23     6    37 1   
    24     7    24 1   
    25     7    38 1   
    26     7    39 1   
    27     8    24 1   
    28     8    25 1   
    29     8    40 1   
    30     8    41 1   
    31     9    10 2   
    32    10    11 1   
    33    10    17 1   
    34    11    12 1   
    35    12    13 1   
    36    12    15 1   
    37    12    42 1   
    38    13    14 1   
    39    13    43 1   
    40    13    44 1   
    41    14    45 1   
    42    15    16 1   
    43    15    46 1   
    44    15    47 1   
    45    16    48 1   
    46    17    49 1   
    47    17    50 1   
    48    18    19 1   
    49    18    51 1   
    50    18    52 1   
    51    19    53 1   
    52    19    54 1   
    53    20    55 1   
    54    20    56 1   
    55    21    57 1   
    56    21    58 1   
    57    22    23 1   
    58    22    59 1   
    59    22    60 1   
    60    23    61 1   
    61    23    62 1   
    62    24    63 1   
    63    24    64 1   
    64    25    65 1   
    65    25    66 1   
    66    25    67 1   
@<TRIPOS>SUBSTRUCTURE
     1 2JT         1 TEMP              0 ****  ****    0 ROOT
