@<TRIPOS>MOLECULE
2JW
   47    50     1     0     0
SMALL
bcc


@<TRIPOS>ATOM
      1 O2          -2.9510     1.8210     2.8060 o          1 2JW      -0.647500
      2 C2          -3.1480     1.8840     1.6080 c          1 2JW       0.823500
      3 N3          -4.3580     1.5800     1.0440 ns         1 2JW      -0.601500
      4 C4          -4.6930     1.5860    -0.2990 c          1 2JW       0.737700
      5 O4          -5.8150     1.2740    -0.6580 o          1 2JW      -0.640500
      6 C5          -3.6180     1.9900    -1.1790 cc         1 2JW      -0.309400
      7 CAR         -3.8690     2.0510    -2.6500 c3         1 2JW      -0.007900
      8 C6          -2.4310     2.3070    -0.6280 cd         1 2JW       0.083600
      9 N1          -2.1780     2.2630     0.7140 n          1 2JW      -0.381000
     10 CAJ         -0.8510     2.5800     1.2820 c5         1 2JW       0.314500
     11 OAF         -0.0910     3.2670     0.3240 os         1 2JW      -0.435600
     12 CAI         -0.0560     1.3380     1.6800 c5         1 2JW      -0.163400
     13 CAG          1.3760     1.7710     1.3560 c5         1 2JW       0.131100
     14 OAH          2.3490     0.7700     1.2060 os         1 2JW      -0.335600
     15 CAE          1.1570     2.6250     0.1090 c5         1 2JW       0.066100
     16 CAC          1.1460     1.7280    -1.1170 c6         1 2JW       0.098400
     17 OAD          2.3290     0.9610    -1.1110 os         1 2JW      -0.335600
     18 CAB          2.4450     0.0850    -0.0240 c6         1 2JW       0.318700
     19 PAA          4.2200    -0.6520    -0.1000 p5         1 2JW       1.083700
     20 OBA          4.2840    -1.5420     1.1370 o          1 2JW      -0.882167
     21 OBC          4.2240    -1.3930    -1.4340 o          1 2JW      -0.882167
     22 OBB          5.1170     0.5810    -0.0500 o          1 2JW      -0.882167
     23 CAU          1.4780    -1.0580    -0.1140 ca         1 2JW      -0.006300
     24 CAV          1.0530    -1.5370    -1.3540 ca         1 2JW      -0.108500
     25 CAW          0.2350    -2.6460    -1.4520 ca         1 2JW      -0.084000
     26 CAX         -0.1420    -3.3120    -0.2930 ca         1 2JW      -0.224200
     27 NCA         -0.9930    -4.4770    -0.3870 no         1 2JW       0.326200
     28 OCA         -1.2980    -5.0500     0.6360 o          1 2JW      -0.265500
     29 OCB         -1.3640    -4.8320    -1.4840 o          1 2JW      -0.265500
     30 CAY          0.2890    -2.8770     0.9540 ca         1 2JW      -0.084000
     31 CAZ          1.1010    -1.7620     1.0320 ca         1 2JW      -0.108500
     32 H1          -5.0820     1.3010     1.6950 hn         1 2JW       0.330500
     33 H2          -4.1650     1.0780    -3.0450 hc         1 2JW       0.037700
     34 H3          -4.6690     2.7530    -2.8900 hc         1 2JW       0.037700
     35 H4          -2.9740     2.3690    -3.1830 hc         1 2JW       0.037700
     36 H5          -1.6090     2.6360    -1.2460 h4         1 2JW       0.181000
     37 H6          -1.0280     3.2380     2.1350 h2         1 2JW       0.076700
     38 H7          -0.1960     1.0830     2.7280 hc         1 2JW       0.076700
     39 H8          -0.3700     0.4790     1.0850 hc         1 2JW       0.076700
     40 H9           1.7400     2.4070     2.1680 h1         1 2JW       0.063700
     41 H10          1.9190     3.4000    -0.0020 h1         1 2JW       0.099700
     42 H11          0.2510     1.0880    -1.1240 h1         1 2JW       0.025200
     43 H12          1.1340     2.3120    -2.0390 h1         1 2JW       0.025200
     44 H15          1.3540    -1.0340    -2.2610 ha         1 2JW       0.162000
     45 H16         -0.0920    -2.9860    -2.4240 ha         1 2JW       0.138500
     46 H17          0.0040    -3.3970     1.8570 ha         1 2JW       0.138500
     47 H18          1.4330    -1.4270     2.0030 ha         1 2JW       0.162000
@<TRIPOS>BOND
     1     1     2 2   
     2     2     3 1   
     3     2     9 1   
     4     3     4 1   
     5     3    32 1   
     6     4     5 2   
     7     4     6 1   
     8     6     7 1   
     9     6     8 2   
    10     7    33 1   
    11     7    34 1   
    12     7    35 1   
    13     8     9 1   
    14     8    36 1   
    15     9    10 1   
    16    10    11 1   
    17    10    12 1   
    18    10    37 1   
    19    11    15 1   
    20    12    13 1   
    21    12    38 1   
    22    12    39 1   
    23    13    14 1   
    24    13    15 1   
    25    13    40 1   
    26    14    18 1   
    27    15    16 1   
    28    15    41 1   
    29    16    17 1   
    30    16    42 1   
    31    16    43 1   
    32    17    18 1   
    33    18    19 1   
    34    18    23 1   
    35    19    20 1   
    36    19    21 1   
    37    19    22 1   
    38    23    24 ar  
    39    23    31 ar  
    40    24    25 ar  
    41    24    44 1   
    42    25    26 ar  
    43    25    45 1   
    44    26    27 1   
    45    26    30 ar  
    46    27    28 1   
    47    27    29 1   
    48    30    31 ar  
    49    30    46 1   
    50    31    47 1   
@<TRIPOS>SUBSTRUCTURE
     1 2JW         1 TEMP              0 ****  ****    0 ROOT
