@<TRIPOS>MOLECULE
2JW
   47    50     1     0     0
SMALL
No Charge or Current Charge


@<TRIPOS>ATOM
      1 O2          -3.0230     2.8170     2.8310 o          1 2JW      -0.572000
      2 C2          -3.2100     2.3840     1.7050 c          1 2JW       0.614000
      3 N3          -4.4520     2.0060     1.3090 ns         1 2JW      -0.467500
      4 C4          -4.8360     1.4980     0.1100 c          1 2JW       0.595200
      5 O4          -6.0000     1.1980    -0.1010 o          1 2JW      -0.565000
      6 C5          -3.7360     1.3530    -0.8680 cc         1 2JW      -0.309400
      7 CAR         -4.1130     0.7850    -2.2160 c3         1 2JW      -0.007900
      8 C6          -2.4560     1.7290    -0.5200 cd         1 2JW       0.033600
      9 N1          -2.1880     2.2360     0.7530 n          1 2JW      -0.314000
     10 CAJ         -0.8100     2.6160     1.1400 c5         1 2JW       0.337700
     11 OAF         -0.0770     3.1740     0.0280 os         1 2JW      -0.482000
     12 CAI         -0.0570     1.3140     1.4720 c5         1 2JW      -0.163400
     13 CAG          1.3760     1.8990     1.4270 c5         1 2JW       0.154300
     14 OAH          2.3990     0.8570     1.3490 os         1 2JW      -0.382000
     15 CAE          1.3190     2.7720     0.1310 c5         1 2JW       0.089300
     16 CAC          1.6830     2.0060    -1.1620 c6         1 2JW       0.121600
     17 OAD          2.8070     1.1270    -0.9680 os         1 2JW      -0.382000
     18 CAB          2.6900     0.1400     0.1020 c6         1 2JW       0.207300
     19 PAA          4.3420    -0.8680     0.2650 p5         1 2JW       1.241500
     20 OBA          4.2770    -1.8260     1.4140 o          1 2JW      -0.882167
     21 OBC          4.6160    -1.6480    -0.9840 o          1 2JW      -0.882167
     22 OBB          5.5000     0.0540     0.4980 o          1 2JW      -0.882167
     23 CAU          1.6070    -0.9270    -0.2080 ca         1 2JW      -0.006300
     24 CAV          1.1930    -1.1980    -1.5310 ca         1 2JW      -0.090500
     25 CAW          0.2030    -2.1600    -1.7960 ca         1 2JW      -0.066000
     26 CAX         -0.3850    -2.8920    -0.7400 ca         1 2JW      -0.224200
     27 NCA         -1.4470    -3.9150    -1.0180 no         1 2JW       0.706200
     28 OCA         -1.9280    -4.5370    -0.0620 o          1 2JW      -0.455500
     29 OCB         -1.8010    -4.0880    -2.1920 o          1 2JW      -0.455500
     30 CAY          0.0540    -2.6520     0.5820 ca         1 2JW      -0.066000
     31 CAZ          1.0440    -1.6880     0.8390 ca         1 2JW      -0.090500
     32 H1          -5.1820     2.1130     1.9940 hn         1 2JW       0.330500
     33 H2          -4.5400    -0.2200    -2.1150 hc         1 2JW       0.037700
     34 H3          -4.8530     1.4200    -2.7190 hc         1 2JW       0.037700
     35 H4          -3.2390     0.7090    -2.8750 hc         1 2JW       0.037700
     36 H5          -1.5930     1.6580    -1.1770 h4         1 2JW       0.231000
     37 H6          -0.8320     3.3190     1.9840 h2         1 2JW       0.076700
     38 H7          -0.3240     0.9100     2.4530 hc         1 2JW       0.076700
     39 H8          -0.2550     0.5550     0.7140 hc         1 2JW       0.076700
     40 H9           1.5730     2.5200     2.3130 h1         1 2JW       0.063700
     41 H10          1.9600     3.6600     0.2200 h1         1 2JW       0.099700
     42 H11          0.8220     1.4150    -1.4990 h1         1 2JW       0.025200
     43 H12          1.9280     2.7200    -1.9610 h1         1 2JW       0.025200
     44 H15          1.6390    -0.6620    -2.3660 ha         1 2JW       0.144000
     45 H16         -0.0980    -2.3310    -2.8270 ha         1 2JW       0.120500
     46 H17         -0.3670    -3.2060     1.4180 ha         1 2JW       0.120500
     47 H18          1.3660    -1.5210     1.8640 ha         1 2JW       0.144000
@<TRIPOS>BOND
     1     1     2 2   
     2     2     3 1   
     3     2     9 1   
     4     3     4 1   
     5     3    32 1   
     6     4     5 2   
     7     4     6 1   
     8     6     7 1   
     9     6     8 2   
    10     7    33 1   
    11     7    34 1   
    12     7    35 1   
    13     8     9 1   
    14     8    36 1   
    15     9    10 1   
    16    10    11 1   
    17    10    12 1   
    18    10    37 1   
    19    11    15 1   
    20    12    13 1   
    21    12    38 1   
    22    12    39 1   
    23    13    14 1   
    24    13    15 1   
    25    13    40 1   
    26    14    18 1   
    27    15    16 1   
    28    15    41 1   
    29    16    17 1   
    30    16    42 1   
    31    16    43 1   
    32    17    18 1   
    33    18    19 1   
    34    18    23 1   
    35    19    20 1   
    36    19    21 1   
    37    19    22 1   
    38    23    24 ar  
    39    23    31 ar  
    40    24    25 ar  
    41    24    44 1   
    42    25    26 ar  
    43    25    45 1   
    44    26    27 1   
    45    26    30 ar  
    46    27    28 1   
    47    27    29 1   
    48    30    31 ar  
    49    30    46 1   
    50    31    47 1   
@<TRIPOS>SUBSTRUCTURE
     1 2JW         1 TEMP              0 ****  ****    0 ROOT
