@<TRIPOS>MOLECULE
2JX
   25    27     1     0     0
SMALL
bcc


@<TRIPOS>ATOM
      1 C2          -3.3740     0.3450     0.1450 cs         1 2JX       0.510400
      2 N3          -2.1010     0.6290    -0.2330 ns         1 2JX      -0.392400
      3 S1          -4.7030     1.3510     0.1620 s          1 2JX      -0.585400
      4 C4          -1.3410    -0.4880    -0.0810 cc         1 2JX       0.353900
      5 N5          -2.0520    -1.4640     0.3720 n2         1 2JX      -0.481300
      6 N6          -3.2880    -0.9460     0.5010 ns         1 2JX      -0.229900
      7 C7           0.1010    -0.5650    -0.4370 c6         1 2JX       0.094800
      8 C8           0.7780    -1.7900     0.1520 c6         1 2JX       0.111400
      9 O9           2.1390    -1.7940    -0.2290 os         1 2JX      -0.302900
     10 C10          2.7730    -0.6030    -0.0990 ca         1 2JX       0.059100
     11 C11          2.0660     0.5920     0.0490 ca         1 2JX       0.048100
     12 O12          0.7050     0.6130     0.0660 os         1 2JX      -0.317900
     13 C13          2.7490     1.7920     0.1810 ca         1 2JX      -0.116000
     14 C14          4.1350     1.8090     0.1640 ca         1 2JX      -0.126000
     15 C15          4.8400     0.6230     0.0010 ca         1 2JX      -0.120000
     16 C16          4.1610    -0.5790    -0.1250 ca         1 2JX      -0.122000
     17 H1          -1.7970     1.5320    -0.5670 hn         1 2JX       0.388500
     18 H2          -4.0480    -1.5170     0.8390 hn         1 2JX       0.395500
     19 H3           0.1950    -0.5890    -1.5310 h1         1 2JX       0.085700
     20 H4           0.6810    -1.7870     1.2430 h1         1 2JX       0.084200
     21 H5           0.3330    -2.7040    -0.2350 h1         1 2JX       0.084200
     22 H6           2.1840     2.7090     0.2980 ha         1 2JX       0.147000
     23 H7           4.6600     2.7480     0.2690 ha         1 2JX       0.140000
     24 H8           5.9220     0.6290    -0.0200 ha         1 2JX       0.140000
     25 H9           4.7010    -1.5100    -0.2460 ha         1 2JX       0.150000
@<TRIPOS>BOND
     1     1     2 1   
     2     1     3 2   
     3     1     6 1   
     4     2     4 1   
     5     2    17 1   
     6     4     5 2   
     7     4     7 1   
     8     5     6 1   
     9     6    18 1   
    10     7     8 1   
    11     7    12 1   
    12     7    19 1   
    13     8     9 1   
    14     8    20 1   
    15     8    21 1   
    16     9    10 1   
    17    10    11 ar  
    18    10    16 ar  
    19    11    12 1   
    20    11    13 ar  
    21    13    14 ar  
    22    13    22 1   
    23    14    15 ar  
    24    14    23 1   
    25    15    16 ar  
    26    15    24 1   
    27    16    25 1   
@<TRIPOS>SUBSTRUCTURE
     1 2JX         1 TEMP              0 ****  ****    0 ROOT
