@<TRIPOS>MOLECULE
2JX
   25    27     1     0     0
SMALL
No Charge or Current Charge


@<TRIPOS>ATOM
      1 C2          -3.3120     0.3210     0.4650 cs         1 2JX       0.376400
      2 N3          -1.9820     0.4550     0.3130 ns         1 2JX      -0.438900
      3 S1          -4.4090     1.3880     1.1230 s          1 2JX      -0.585400
      4 C4          -1.4290    -0.6390    -0.2810 cc         1 2JX       0.353900
      5 N5          -2.3390    -1.5250    -0.5430 n2         1 2JX      -0.481300
      6 N6          -3.5070    -0.9230    -0.0770 ns         1 2JX      -0.276400
      7 C7           0.0680    -0.6640    -0.5300 c6         1 2JX       0.118000
      8 C8           0.7350    -1.7710     0.3180 c6         1 2JX       0.134600
      9 O9           2.1600    -1.7910     0.0750 os         1 2JX      -0.326100
     10 C10          2.8110    -0.5760     0.0090 ca         1 2JX       0.059100
     11 C11          2.0790     0.6300    -0.1340 ca         1 2JX       0.048100
     12 O12          0.7030     0.6110    -0.2410 os         1 2JX      -0.341100
     13 C13          2.7550     1.8600    -0.1660 ca         1 2JX      -0.098000
     14 C14          4.1600     1.8920    -0.0790 ca         1 2JX      -0.108000
     15 C15          4.8870     0.6940     0.0410 ca         1 2JX      -0.102000
     16 C16          4.2130    -0.5400     0.0840 ca         1 2JX      -0.104000
     17 H1          -1.4650     1.2800     0.5950 hn         1 2JX       0.502000
     18 H2          -4.4490    -1.3260    -0.1170 hn         1 2JX       0.509000
     19 H3           0.2470    -0.8970    -1.5890 h1         1 2JX       0.085700
     20 H4           0.5560    -1.5740     1.3850 h1         1 2JX       0.084200
     21 H5           0.3120    -2.7560     0.0750 h1         1 2JX       0.084200
     22 H6           2.1940     2.7860    -0.2670 ha         1 2JX       0.129000
     23 H7           4.6840     2.8450    -0.1090 ha         1 2JX       0.122000
     24 H8           5.9730     0.7220     0.1040 ha         1 2JX       0.122000
     25 H9           4.7740    -1.4660     0.1850 ha         1 2JX       0.132000
@<TRIPOS>BOND
     1     1     2 1   
     2     1     3 2   
     3     1     6 1   
     4     2     4 1   
     5     2    17 1   
     6     4     5 2   
     7     4     7 1   
     8     5     6 1   
     9     6    18 1   
    10     7     8 1   
    11     7    12 1   
    12     7    19 1   
    13     8     9 1   
    14     8    20 1   
    15     8    21 1   
    16     9    10 1   
    17    10    11 ar  
    18    10    16 ar  
    19    11    12 1   
    20    11    13 ar  
    21    13    14 ar  
    22    13    22 1   
    23    14    15 ar  
    24    14    23 1   
    25    15    16 ar  
    26    15    24 1   
    27    16    25 1   
@<TRIPOS>SUBSTRUCTURE
     1 2JX         1 TEMP              0 ****  ****    0 ROOT
