@<TRIPOS>MOLECULE
2JY
   25    26     1     0     0
SMALL
bcc


@<TRIPOS>ATOM
      1 C01          3.2520     2.3150    -0.5280 ca         1 2JY      -0.085000
      2 C02          4.1100     1.2370    -0.6490 ca         1 2JY      -0.173000
      3 C03          3.6130    -0.0400    -0.4270 ca         1 2JY       0.060400
      4 C04          2.2820    -0.2370    -0.0930 ca         1 2JY      -0.021600
      5 C05          1.4170     0.8600     0.0260 ca         1 2JY       0.181100
      6 C06          1.9170     2.1400    -0.1930 ca         1 2JY      -0.223000
      7 CL1          4.6700    -1.3930    -0.5750 cl         1 2JY      -0.100400
      8 CL2          1.6570    -1.8140     0.1810 cl         1 2JY      -0.051400
      9 O09          0.1510     0.5770     0.3530 os         1 2JY      -0.283900
     10 C10         -0.7990     1.6410     0.3860 c3         1 2JY       0.130100
     11 C11         -2.1260     1.0600     0.6720 cc         1 2JY       0.145000
     12 O12         -2.7170     0.3310    -0.2940 os         1 2JY      -0.282800
     13 C13         -3.9110    -0.0970     0.1750 cc         1 2JY       0.247200
     14 C14         -4.0890     0.3620     1.4420 cd         1 2JY      -0.309300
     15 C15         -2.9260     1.1150     1.7670 cd         1 2JY      -0.247300
     16 C16         -4.7770    -0.9430    -0.7130 c          1 2JY       0.838100
     17 O17         -4.3320    -1.2060    -1.8430 o          1 2JY      -0.799300
     18 O18         -5.8600    -1.2900    -0.2070 o          1 2JY      -0.799300
     19 H1           3.6270     3.3150    -0.6980 ha         1 2JY       0.127000
     20 H2           5.1490     1.3770    -0.9080 ha         1 2JY       0.140000
     21 H3           1.2810     3.0090    -0.1040 ha         1 2JY       0.141000
     22 H4          -0.5530     2.3600     1.1730 h1         1 2JY       0.040200
     23 H5          -0.7990     2.1710    -0.5720 h1         1 2JY       0.040200
     24 H6          -4.9460     0.1850     2.0710 ha         1 2JY       0.158000
     25 H7          -2.7070     1.6310     2.6890 ha         1 2JY       0.129000
@<TRIPOS>BOND
     1     1     2 ar  
     2     1     6 ar  
     3     1    19 1   
     4     2     3 ar  
     5     2    20 1   
     6     3     4 ar  
     7     3     7 1   
     8     4     5 ar  
     9     4     8 1   
    10     5     6 ar  
    11     5     9 1   
    12     6    21 1   
    13     9    10 1   
    14    10    11 1   
    15    10    22 1   
    16    10    23 1   
    17    11    12 1   
    18    11    15 2   
    19    12    13 1   
    20    13    14 2   
    21    13    16 1   
    22    14    15 1   
    23    14    24 1   
    24    15    25 1   
    25    16    17 1   
    26    16    18 1   
@<TRIPOS>SUBSTRUCTURE
     1 2JY         1 TEMP              0 ****  ****    0 ROOT
