@<TRIPOS>MOLECULE
2JY
   25    26     1     0     0
SMALL
No Charge or Current Charge


@<TRIPOS>ATOM
      1 C01          3.3140     2.3780    -0.6720 ca         1 2JY      -0.067000
      2 C02          4.2550     1.3510    -0.5010 ca         1 2JY      -0.155000
      3 C03          3.8420     0.0780    -0.0780 ca         1 2JY       0.152000
      4 C04          2.4780    -0.1760     0.1790 ca         1 2JY       0.070000
      5 C05          1.5280     0.8540     0.0080 ca         1 2JY       0.181100
      6 C06          1.9540     2.1330    -0.4190 ca         1 2JY      -0.205000
      7 Cl1          5.0580    -1.1850     0.1250 cl         1 2JY      -0.192000
      8 Cl2          1.9550    -1.7810     0.7130 cl         1 2JY      -0.143000
      9 O09          0.1980     0.5750     0.2680 os         1 2JY      -0.307100
     10 C10         -0.8390     1.5610     0.1260 c3         1 2JY       0.153300
     11 C11         -2.1520     0.9210     0.4930 cc         1 2JY       0.035300
     12 O12         -3.0470     0.5950    -0.5030 os         1 2JY      -0.194000
     13 C13         -4.1470     0.0310     0.1190 cc         1 2JY       0.137500
     14 C14         -3.9400     0.0090     1.4780 cd         1 2JY      -0.226000
     15 C15         -2.6710     0.5760     1.7130 cd         1 2JY      -0.164000
     16 C16         -5.3580    -0.4640    -0.6200 c          1 2JY       0.627500
     17 O17         -5.3870    -0.3710    -1.8410 o          1 2JY      -0.694000
     18 O18         -6.2860    -0.9490     0.0170 o          1 2JY      -0.694000
     19 H1           3.6380     3.3640    -1.0010 ha         1 2JY       0.109000
     20 H2           5.3080     1.5420    -0.6980 ha         1 2JY       0.122000
     21 H3           1.2470     2.9460    -0.5590 ha         1 2JY       0.123000
     22 H4          -0.6580     2.4140     0.7920 h1         1 2JY       0.040200
     23 H5          -0.8880     1.9280    -0.9070 h1         1 2JY       0.040200
     24 H6          -4.6290    -0.3750     2.2230 ha         1 2JY       0.140000
     25 H7          -2.1880     0.7140     2.6750 ha         1 2JY       0.111000
@<TRIPOS>BOND
     1     1     2 ar  
     2     1     6 ar  
     3     1    19 1   
     4     2     3 ar  
     5     2    20 1   
     6     3     4 ar  
     7     3     7 1   
     8     4     5 ar  
     9     4     8 1   
    10     5     6 ar  
    11     5     9 1   
    12     6    21 1   
    13     9    10 1   
    14    10    11 1   
    15    10    22 1   
    16    10    23 1   
    17    11    12 1   
    18    11    15 2   
    19    12    13 1   
    20    13    14 2   
    21    13    16 1   
    22    14    15 1   
    23    14    24 1   
    24    15    25 1   
    25    16    17 1   
    26    16    18 1   
@<TRIPOS>SUBSTRUCTURE
     1 2JY         1 TEMP              0 ****  ****    0 ROOT
