@<TRIPOS>MOLECULE
2JZ
   64    68     1     0     0
SMALL
bcc


@<TRIPOS>ATOM
      1 C4          -7.4180    -4.5400     0.2080 ca         1 2JZ      -0.099000
      2 C5           1.9190     8.3660     0.3710 ca         1 2JZ      -0.244300
      3 C6          -6.0860    -3.0130     1.4980 ca         1 2JZ      -0.098000
      4 C7          -7.2070    -3.7650    -0.9240 ca         1 2JZ      -0.167000
      5 C8           2.3180     7.0620     0.2980 ca         1 2JZ      -0.088000
      6 C10          3.4920    -1.5500    -0.9000 ca         1 2JZ      -0.133000
      7 C13          0.5390     8.6610     0.3090 ca         1 2JZ       0.406200
      8 C15          3.0990    -3.5540     0.3660 ca         1 2JZ      -0.236000
      9 C17         -3.5730    -1.2580     0.0050 c3         1 2JZ       0.237800
     10 C20          2.6120    -2.3850    -0.2340 ca         1 2JZ       0.171600
     11 C21         -5.8560    -2.2130     0.3810 ca         1 2JZ      -0.121300
     12 C22         -0.0150     6.4550     0.1140 ca         1 2JZ       0.373600
     13 C24         -6.4320    -2.6270    -0.8120 ca         1 2JZ       0.137900
     14 C26         -1.4580    -0.0010    -0.0030 ca         1 2JZ       0.982900
     15 C28          0.5400    -1.0070    -0.1210 ca         1 2JZ       0.986900
     16 C1           7.5560    -2.6190    -1.0780 c3         1 2JZ       0.122700
     17 C2           4.1360    -5.8720     1.5500 c3         1 2JZ       0.122700
     18 C3          -6.8570    -4.1650     1.4200 ca         1 2JZ      -0.142000
     19 C9          -0.6750     4.1310    -0.0930 ca         1 2JZ      -0.134000
     20 C11         -1.0030     5.4560    -0.0180 ca         1 2JZ      -0.146300
     21 C12          4.8470    -1.8770    -0.9570 ca         1 2JZ      -0.169000
     22 C14          1.6650     4.6830     0.0890 ca         1 2JZ      -0.191000
     23 C16         -5.0020    -0.9810     0.4640 c3         1 2JZ      -0.044100
     24 C18          1.3410     6.0490     0.1650 ca         1 2JZ      -0.113300
     25 C19          0.6830     3.7220    -0.0360 ca         1 2JZ       0.192600
     26 C23          5.3370    -3.0300    -0.3720 ca         1 2JZ       0.092100
     27 C25          4.4400    -3.8850     0.2990 ca         1 2JZ       0.136100
     28 C27          0.4110     1.2260    -0.0980 ca         1 2JZ       0.985900
     29 N29         -0.3930     7.7540     0.1860 nb         1 2JZ      -0.652000
     30 N30         -0.9050     1.2240    -0.0250 nb         1 2JZ      -0.890000
     31 N31         -0.7870    -1.1450    -0.0490 nb         1 2JZ      -0.897000
     32 N32          1.1950     0.1440    -0.1530 nb         1 2JZ      -0.890000
     33 N33         -2.7920    -0.0450     0.0810 nu         1 2JZ      -0.860900
     34 N34          1.0990     2.3980    -0.1180 nu         1 2JZ      -0.734300
     35 N35          1.2300    -2.1690    -0.1580 nu         1 2JZ      -0.734300
     36 O36          6.6270    -3.4250    -0.3840 os         1 2JZ      -0.297900
     37 O37          4.9830    -4.9870     0.8450 os         1 2JZ      -0.296900
     38 F38         -6.2290    -1.8830    -1.9160 f          1 2JZ      -0.145900
     39 H4          -8.0230    -5.4340     0.1370 ha         1 2JZ       0.137000
     40 H5           2.6350     9.1690     0.4740 ha         1 2JZ       0.140000
     41 H6          -5.6550    -2.7170     2.4460 ha         1 2JZ       0.136000
     42 H7          -7.6380    -4.0360    -1.8790 ha         1 2JZ       0.151000
     43 H8           3.3670     6.7970     0.3410 ha         1 2JZ       0.135000
     44 H10          3.1500    -0.6450    -1.3770 ha         1 2JZ       0.158000
     45 H13          0.2130     9.6940     0.3660 h4         1 2JZ       0.017100
     46 H15          2.4030    -4.1970     0.8910 ha         1 2JZ       0.137000
     47 H17         -3.1240    -2.0200     0.6440 h1         1 2JZ       0.060200
     48 H17A        -3.5750    -1.6580    -1.0140 h1         1 2JZ       0.060200
     49 H1           7.3090    -2.5330    -2.1390 h1         1 2JZ       0.038700
     50 H1A          7.6260    -1.6140    -0.6520 h1         1 2JZ       0.038700
     51 H1B          8.5230    -3.1080    -0.9820 h1         1 2JZ       0.038700
     52 H2           4.7650    -6.6820     1.9100 h1         1 2JZ       0.040033
     53 H2A          3.6610    -5.3860     2.4060 h1         1 2JZ       0.040033
     54 H2B          3.3570    -6.2900     0.9060 h1         1 2JZ       0.040033
     55 H3          -7.0200    -4.7640     2.3060 ha         1 2JZ       0.138000
     56 H9          -1.4500     3.3900    -0.1910 ha         1 2JZ       0.171000
     57 H11         -2.0420     5.7580    -0.0610 ha         1 2JZ       0.149000
     58 H12          5.5080    -1.2050    -1.4860 ha         1 2JZ       0.138000
     59 H14          2.7090     4.3920     0.1330 ha         1 2JZ       0.132000
     60 H16         -4.9820    -0.6300     1.4970 hc         1 2JZ       0.058700
     61 H16A        -5.4320    -0.1730    -0.1340 hc         1 2JZ       0.058700
     62 HN33        -3.2720     0.8380     0.0070 hn         1 2JZ       0.450800
     63 HN34         2.0990     2.2630    -0.1450 hn         1 2JZ       0.456800
     64 HN35         0.6560    -2.9890    -0.0280 hn         1 2JZ       0.455800
@<TRIPOS>BOND
     1     1     4 ar  
     2     1    18 ar  
     3     1    39 1   
     4     2     5 ar  
     5     2     7 ar  
     6     2    40 1   
     7     3    11 ar  
     8     3    18 ar  
     9     3    41 1   
    10     4    13 ar  
    11     4    42 1   
    12     5    24 ar  
    13     5    43 1   
    14     6    10 ar  
    15     6    21 ar  
    16     6    44 1   
    17     7    29 ar  
    18     7    45 1   
    19     8    10 ar  
    20     8    27 ar  
    21     8    46 1   
    22     9    23 1   
    23     9    33 1   
    24     9    47 1   
    25     9    48 1   
    26    10    35 1   
    27    11    13 ar  
    28    11    23 1   
    29    12    20 ar  
    30    12    24 ar  
    31    12    29 ar  
    32    13    38 1   
    33    14    30 ar  
    34    14    31 ar  
    35    14    33 1   
    36    15    31 ar  
    37    15    32 ar  
    38    15    35 1   
    39    16    36 1   
    40    16    49 1   
    41    16    50 1   
    42    16    51 1   
    43    17    37 1   
    44    17    52 1   
    45    17    53 1   
    46    17    54 1   
    47    18    55 1   
    48    19    20 ar  
    49    19    25 ar  
    50    19    56 1   
    51    20    57 1   
    52    21    26 ar  
    53    21    58 1   
    54    22    24 ar  
    55    22    25 ar  
    56    22    59 1   
    57    23    60 1   
    58    23    61 1   
    59    25    34 1   
    60    26    27 ar  
    61    26    36 1   
    62    27    37 1   
    63    28    30 ar  
    64    28    32 ar  
    65    28    34 1   
    66    33    62 1   
    67    34    63 1   
    68    35    64 1   
@<TRIPOS>SUBSTRUCTURE
     1 2JZ         1 TEMP              0 ****  ****    0 ROOT
