@<TRIPOS>MOLECULE
2JZ
   64    68     1     0     0
SMALL
No Charge or Current Charge


@<TRIPOS>ATOM
      1 C4          -7.5750    -4.5110     0.4600 ca         1 2JZ      -0.081000
      2 C5           1.6320     8.5010     0.8880 ca         1 2JZ      -0.161000
      3 C6          -6.4800    -2.6380     1.5700 ca         1 2JZ      -0.080000
      4 C7          -7.0580    -4.0780    -0.7730 ca         1 2JZ      -0.149000
      5 C8           2.0310     7.1570     0.9530 ca         1 2JZ      -0.070000
      6 C10          3.6150    -1.6140    -0.9490 ca         1 2JZ      -0.115000
      7 C13          0.4050     8.8200     0.2850 ca         1 2JZ       0.340900
      8 C15          3.1980    -3.6440     0.3120 ca         1 2JZ      -0.218000
      9 C17         -3.5820    -1.2920     0.1890 c3         1 2JZ       0.237800
     10 C20          2.7290    -2.4390    -0.2310 ca         1 2JZ       0.310000
     11 C21         -5.9590    -2.1960     0.3370 ca         1 2JZ      -0.121300
     12 C22         -0.0470     6.5840    -0.1850 ca         1 2JZ       0.243000
     13 C24         -6.2550    -2.9280    -0.8330 ca         1 2JZ       0.173000
     14 C26         -1.3840     0.0070     0.0710 ca         1 2JZ       0.456900
     15 C28          0.6390    -0.9620    -0.0560 ca         1 2JZ       0.460900
     16 C1           7.7420    -2.7760    -1.3750 c3         1 2JZ       0.145900
     17 C2           4.2190    -6.1170     1.4390 c3         1 2JZ       0.145900
     18 C3          -7.2850    -3.7900     1.6300 ca         1 2JZ      -0.124000
     19 C9          -0.5160     4.2310    -0.6810 ca         1 2JZ      -0.116000
     20 C11         -0.8810     5.5900    -0.7280 ca         1 2JZ      -0.063000
     21 C12          4.9650    -1.9730    -1.1030 ca         1 2JZ      -0.151000
     22 C14          1.5410     4.8200     0.4530 ca         1 2JZ      -0.173000
     23 C16         -5.0820    -0.9460     0.2840 c3         1 2JZ      -0.044100
     24 C18          1.1780     6.1810     0.4080 ca         1 2JZ      -0.048000
     25 C19          0.6930     3.8360    -0.0780 ca         1 2JZ       0.331000
     26 C23          5.4450    -3.1780    -0.5420 ca         1 2JZ       0.092100
     27 C25          4.5540    -4.0180     0.1670 ca         1 2JZ       0.136100
     28 C27          0.4630     1.2810    -0.0300 ca         1 2JZ       0.459900
     29 N29         -0.4210     7.8850    -0.2420 nb         1 2JZ      -0.652000
     30 N30         -0.8730     1.2420     0.0510 nb         1 2JZ      -0.364000
     31 N31         -0.6840    -1.1350     0.0240 nb         1 2JZ      -0.371000
     32 N32          1.2740     0.2190    -0.0700 nb         1 2JZ      -0.364000
     33 N33         -2.7580    -0.0700     0.1530 nu         1 2JZ      -0.916100
     34 N34          1.1070     2.5030    -0.0180 nu         1 2JZ      -0.927900
     35 N35          1.3770    -2.1290    -0.0650 nu         1 2JZ      -0.927900
     36 O36          6.7680    -3.5680    -0.6720 os         1 2JZ      -0.321100
     37 O37          5.0450    -5.1980     0.7020 os         1 2JZ      -0.320100
     38 F38         -5.7650    -2.5300    -2.0300 f          1 2JZ      -0.181000
     39 H4          -8.1970    -5.4020     0.5080 ha         1 2JZ       0.119000
     40 H5           2.2590     9.2880     1.2960 ha         1 2JZ       0.122000
     41 H6          -6.2620    -2.0900     2.4850 ha         1 2JZ       0.118000
     42 H7          -7.2780    -4.6320    -1.6820 ha         1 2JZ       0.133000
     43 H8           2.9770     6.8830     1.4140 ha         1 2JZ       0.117000
     44 H10          3.2610    -0.6970    -1.4080 ha         1 2JZ       0.140000
     45 H13          0.0700     9.8550     0.2210 h4         1 2JZ       0.017100
     46 H15          2.5020    -4.2750     0.8530 ha         1 2JZ       0.119000
     47 H17         -3.3030    -1.9090     1.0550 h1         1 2JZ       0.060200
     48 H17A        -3.4070    -1.8900    -0.7160 h1         1 2JZ       0.060200
     49 H1           7.4530    -2.6450    -2.4260 h1         1 2JZ       0.038700
     50 H1A          7.8500    -1.7870    -0.9120 h1         1 2JZ       0.038700
     51 H1B          8.7210    -3.2710    -1.3520 h1         1 2JZ       0.038700
     52 H2           4.8120    -6.9790     1.7690 h1         1 2JZ       0.040033
     53 H2A          3.7970    -5.6350     2.3300 h1         1 2JZ       0.040033
     54 H2B          3.3970    -6.4900     0.8150 h1         1 2JZ       0.040033
     55 H3          -7.6830    -4.1240     2.5860 ha         1 2JZ       0.120000
     56 H9          -1.1720     3.4960    -1.1320 ha         1 2JZ       0.153000
     57 H11         -1.8180     5.8770    -1.1970 ha         1 2JZ       0.131000
     58 H12          5.6170    -1.3100    -1.6640 ha         1 2JZ       0.120000
     59 H14          2.4820     4.5290     0.9110 ha         1 2JZ       0.114000
     60 H16         -5.2500    -0.3280     1.1750 hc         1 2JZ       0.058700
     61 H16A        -5.3640    -0.3270    -0.5760 hc         1 2JZ       0.058700
     62 HN33        -3.2340     0.8300     0.1930 hn         1 2JZ       0.506000
     63 HN34         2.1060     2.3930     0.1460 hn         1 2JZ       0.512000
     64 HN35         0.8000    -2.9320     0.1740 hn         1 2JZ       0.511000
@<TRIPOS>BOND
     1     1     4 ar  
     2     1    18 ar  
     3     1    39 1   
     4     2     5 ar  
     5     2     7 ar  
     6     2    40 1   
     7     3    11 ar  
     8     3    18 ar  
     9     3    41 1   
    10     4    13 ar  
    11     4    42 1   
    12     5    24 ar  
    13     5    43 1   
    14     6    10 ar  
    15     6    21 ar  
    16     6    44 1   
    17     7    29 ar  
    18     7    45 1   
    19     8    10 ar  
    20     8    27 ar  
    21     8    46 1   
    22     9    23 1   
    23     9    33 1   
    24     9    47 1   
    25     9    48 1   
    26    10    35 1   
    27    11    13 ar  
    28    11    23 1   
    29    12    20 ar  
    30    12    24 ar  
    31    12    29 ar  
    32    13    38 1   
    33    14    30 ar  
    34    14    31 ar  
    35    14    33 1   
    36    15    31 ar  
    37    15    32 ar  
    38    15    35 1   
    39    16    36 1   
    40    16    49 1   
    41    16    50 1   
    42    16    51 1   
    43    17    37 1   
    44    17    52 1   
    45    17    53 1   
    46    17    54 1   
    47    18    55 1   
    48    19    20 ar  
    49    19    25 ar  
    50    19    56 1   
    51    20    57 1   
    52    21    26 ar  
    53    21    58 1   
    54    22    24 ar  
    55    22    25 ar  
    56    22    59 1   
    57    23    60 1   
    58    23    61 1   
    59    25    34 1   
    60    26    27 ar  
    61    26    36 1   
    62    27    37 1   
    63    28    30 ar  
    64    28    32 ar  
    65    28    34 1   
    66    33    62 1   
    67    34    63 1   
    68    35    64 1   
@<TRIPOS>SUBSTRUCTURE
     1 2JZ         1 TEMP              0 ****  ****    0 ROOT
