@<TRIPOS>MOLECULE
2K0
   53    57     1     0     0
SMALL
No Charge or Current Charge


@<TRIPOS>ATOM
      1 C1           6.5480     0.7360     1.6600 ca         1 2K0      -0.110000
      2 C2           5.1580     0.6060     1.8140 ca         1 2K0       0.150000
      3 C3           4.3240     0.5050     0.6780 ca         1 2K0      -0.154600
      4 C7           2.8280     0.3900     0.8170 c          1 2K0       0.627900
      5 C8           2.1600    -0.6370    -0.0330 cc         1 2K0      -0.240400
      6 C9           2.7920    -1.7110    -0.6510 cd         1 2K0      -0.083100
      7 C10          0.5770    -1.9560    -1.0190 ca         1 2K0       0.343500
      8 C11          0.7480    -0.8200    -0.2600 ca         1 2K0      -0.081800
      9 C12         -0.3470    -0.0450     0.1510 ca         1 2K0      -0.023000
     10 C13         -1.6300    -0.4830    -0.2410 ca         1 2K0      -0.051000
     11 C14         -1.7120    -1.6690    -1.0200 ca         1 2K0       0.353900
     12 C15         -2.8220     0.2780     0.1560 cc         1 2K0      -0.160000
     13 C16         -2.9400     1.4570     0.9130 cc         1 2K0       0.256900
     14 C19         -7.0320    -0.3000     0.9500 c6         1 2K0      -0.091900
     15 C20         -8.5710    -0.2460     0.8130 c6         1 2K0       0.159800
     16 C21         -8.3980     1.1010    -1.2550 c6         1 2K0       0.159800
     17 C22         -6.8540     1.0870    -1.1790 c6         1 2K0      -0.091900
     18 Cl           4.5120     0.5150     3.4530 cl         1 2K0      -0.184000
     19 C4           4.9110     0.5530    -0.6080 ca         1 2K0      -0.058000
     20 C5           6.3050     0.6840    -0.7630 ca         1 2K0      -0.092300
     21 C6           6.9190     0.7320    -2.1550 c3         1 2K0       0.210900
     22 O            6.8600     2.0640    -2.6760 oh         1 2K0      -0.652000
     23 C            7.1220     0.7750     0.3790 ca         1 2K0      -0.090000
     24 O1           2.1950     1.1730     1.5150 o          1 2K0      -0.510100
     25 N1          -0.6320    -2.3990    -1.4070 nb         1 2K0      -0.674000
     26 N            1.8110    -2.5140    -1.2810 na         1 2K0      -0.311400
     27 C17         -4.0890    -0.0900    -0.1910 cd         1 2K0      -0.156000
     28 N3          -4.9020     0.8970     0.3840 na         1 2K0       0.138800
     29 N2          -4.1820     1.8640     1.0750 nd         1 2K0      -0.527800
     30 C18         -6.3810     0.9450     0.2920 c6         1 2K0       0.093300
     31 N4          -8.9730    -0.1020    -0.6070 n7         1 2K0      -0.865400
     32 H1           7.1840     0.8020     2.5390 ha         1 2K0       0.132000
     33 H2           3.8480    -1.9780    -0.6730 h4         1 2K0       0.223000
     34 H3          -0.2120     0.8550     0.7420 ha         1 2K0       0.144000
     35 H4          -2.6730    -2.0570    -1.3520 h4         1 2K0       0.017100
     36 H5          -2.1420     2.0370     1.3580 h4         1 2K0       0.043100
     37 H7          -6.6590    -1.2200     0.4800 hc         1 2K0       0.061450
     38 H8          -9.0110    -1.1640     1.2290 h1         1 2K0       0.035200
     39 H9          -8.9630     0.6040     1.3930 h1         1 2K0       0.035200
     40 H10         -8.7830     2.0050    -0.7590 h1         1 2K0       0.035200
     41 H11         -8.7150     1.1390    -2.3080 h1         1 2K0       0.035200
     42 H12         -6.4690     0.2560    -1.7860 hc         1 2K0       0.061450
     43 H13         -6.4530     2.0100    -1.6170 hc         1 2K0       0.061450
     44 H14          4.2820     0.5080    -1.4950 ha         1 2K0       0.136000
     45 H15          7.9610     0.3880    -2.1070 h1         1 2K0       0.027200
     46 H16          6.3760     0.0410    -2.8140 h1         1 2K0       0.027200
     47 H17          7.2750     2.0370    -3.5670 ho         1 2K0       0.446000
     48 H18          8.2000     0.8790     0.2730 ha         1 2K0       0.116000
     49 H19          1.9670    -3.3660    -1.8060 hn         1 2K0       0.364000
     50 H20         -4.4800    -0.9210    -0.7650 h4         1 2K0       0.155000
     51 H21         -6.7200     1.8340     0.8420 h1         1 2K0       0.078700
     52 H22         -9.9990    -0.0480    -0.6580 hn         1 2K0       0.417000
     53 H6          -6.7570    -0.3530     2.0120 hc         1 2K0       0.061450
@<TRIPOS>BOND
     1     1     2 ar  
     2     1    23 ar  
     3     1    32 1   
     4     2     3 ar  
     5     2    18 1   
     6     3     4 1   
     7     3    19 ar  
     8     4     5 1   
     9     4    24 2   
    10     5     6 2   
    11     5     8 1   
    12     6    26 1   
    13     6    33 1   
    14     7     8 ar  
    15     7    25 ar  
    16     7    26 1   
    17     8     9 ar  
    18     9    10 ar  
    19     9    34 1   
    20    10    11 ar  
    21    10    12 1   
    22    11    25 ar  
    23    11    35 1   
    24    12    13 1   
    25    12    27 2   
    26    13    29 2   
    27    13    36 1   
    28    14    15 1   
    29    14    30 1   
    30    14    37 1   
    31    14    53 1   
    32    15    31 1   
    33    15    38 1   
    34    15    39 1   
    35    16    17 1   
    36    16    31 1   
    37    16    40 1   
    38    16    41 1   
    39    17    30 1   
    40    17    42 1   
    41    17    43 1   
    42    19    20 ar  
    43    19    44 1   
    44    20    21 1   
    45    20    23 ar  
    46    21    22 1   
    47    21    45 1   
    48    21    46 1   
    49    22    47 1   
    50    23    48 1   
    51    26    49 1   
    52    27    28 1   
    53    27    50 1   
    54    28    29 1   
    55    28    30 1   
    56    30    51 1   
    57    31    52 1   
@<TRIPOS>SUBSTRUCTURE
     1 2K0         1 TEMP              0 ****  ****    0 ROOT
