@<TRIPOS>MOLECULE
2K0
   53    57     1     0     0
SMALL
abcg2


@<TRIPOS>ATOM
      1 C1           6.3050    -0.2490     1.8950 ca         1 2K0      -0.110000
      2 C2           4.9240    -0.2070     1.8050 ca         1 2K0       0.150000
      3 C3           4.3000     0.2700     0.6590 ca         1 2K0      -0.154600
      4 C7           2.8060     0.3730     0.5660 c          1 2K0       0.627900
      5 C8           2.1430    -0.5050    -0.3660 cc         1 2K0      -0.240400
      6 C9           2.7340    -1.4970    -1.1270 cd         1 2K0      -0.083100
      7 C10          0.5690    -1.5830    -1.6090 ca         1 2K0       0.343500
      8 C11          0.7390    -0.5520    -0.6680 ca         1 2K0      -0.081800
      9 C12         -0.4030     0.1280    -0.2620 ca         1 2K0      -0.023000
     10 C13         -1.6220    -0.2440    -0.8220 ca         1 2K0      -0.051000
     11 C14         -1.6360    -1.2870    -1.7660 ca         1 2K0       0.353900
     12 C15         -2.8600     0.4350    -0.4510 cc         1 2K0      -0.160000
     13 C16         -3.0130     1.7180     0.1100 cc         1 2K0       0.256900
     14 C19         -6.8290     0.4920     1.4220 c6         1 2K0      -0.091900
     15 C20         -8.3470     0.5200     1.5360 c6         1 2K0       0.159800
     16 C21         -8.6040     0.1390    -0.8230 c6         1 2K0       0.159800
     17 C22         -7.0960     0.0790    -1.0320 c6         1 2K0      -0.091900
     18 CL           3.9760    -0.7970     3.1300 cl         1 2K0      -0.184000
     19 C4           5.0850     0.7060    -0.4020 ca         1 2K0      -0.058000
     20 C5           6.4740     0.6870    -0.3280 ca         1 2K0      -0.092300
     21 C6           7.3210     1.1320    -1.4880 c3         1 2K0       0.210900
     22 O            6.6840     2.1890    -2.1610 oh         1 2K0      -0.652000
     23 C            7.0700     0.2080     0.8340 ca         1 2K0      -0.090000
     24 O1           2.2050     1.1760     1.2570 o          1 2K0      -0.510100
     25 N1          -0.5680    -1.9610    -2.1590 nb         1 2K0      -0.674000
     26 N            1.8020    -2.1310    -1.8590 na         1 2K0      -0.311400
     27 C17         -4.1600    -0.0200    -0.5780 cd         1 2K0      -0.156000
     28 N3          -4.9650     0.9550    -0.1260 na         1 2K0       0.138800
     29 N2          -4.2830     2.0140     0.3000 nd         1 2K0      -0.527800
     30 C18         -6.4120     0.9380     0.0230 c6         1 2K0       0.093300
     31 N4          -8.9370    -0.3220     0.5120 n7         1 2K0      -0.865400
     32 H1           6.7820    -0.6270     2.7890 ha         1 2K0       0.132000
     33 H2           3.7700    -1.7930    -1.1810 h4         1 2K0       0.223000
     34 H3          -0.3480     0.9150     0.4770 ha         1 2K0       0.144000
     35 H4          -2.5740    -1.5750    -2.2290 h4         1 2K0       0.017100
     36 H5          -2.2450     2.4350     0.3600 h4         1 2K0       0.043100
     37 H7          -6.4620    -0.5220     1.6050 hc         1 2K0       0.061450
     38 H8          -8.6500     0.1530     2.5180 h1         1 2K0       0.035200
     39 H9          -8.6850     1.5680     1.4690 h1         1 2K0       0.035200
     40 H10         -8.9490     1.1680    -1.0180 h1         1 2K0       0.035200
     41 H11         -9.0970    -0.5040    -1.5540 h1         1 2K0       0.035200
     42 H12         -6.7770    -0.9640    -0.9460 hc         1 2K0       0.061450
     43 H13         -6.8400     0.4260    -2.0340 hc         1 2K0       0.061450
     44 H14          4.5960     1.0770    -1.2940 ha         1 2K0       0.136000
     45 H15          8.3120     1.4210    -1.1160 h1         1 2K0       0.027200
     46 H16          7.4770     0.2720    -2.1530 h1         1 2K0       0.027200
     47 H17          7.1190     2.3080    -3.0100 ho         1 2K0       0.446000
     48 H18          8.1490     0.1890     0.9200 ha         1 2K0       0.116000
     49 H19          1.9810    -2.8970    -2.4910 hn         1 2K0       0.364000
     50 H20         -4.5450    -0.9580    -0.9440 h4         1 2K0       0.155000
     51 H21         -6.7280     1.9750    -0.1230 h1         1 2K0       0.078700
     52 H22         -9.9420    -0.3360     0.6240 hn         1 2K0       0.417000
     53 H6          -6.3860     1.1470     2.1750 hc         1 2K0       0.061450
@<TRIPOS>BOND
     1     1     2 ar  
     2     1    23 ar  
     3     1    32 1   
     4     2     3 ar  
     5     2    18 1   
     6     3     4 1   
     7     3    19 ar  
     8     4     5 1   
     9     4    24 2   
    10     5     6 2   
    11     5     8 1   
    12     6    26 1   
    13     6    33 1   
    14     7     8 ar  
    15     7    25 ar  
    16     7    26 1   
    17     8     9 ar  
    18     9    10 ar  
    19     9    34 1   
    20    10    11 ar  
    21    10    12 1   
    22    11    25 ar  
    23    11    35 1   
    24    12    13 1   
    25    12    27 2   
    26    13    29 2   
    27    13    36 1   
    28    14    15 1   
    29    14    30 1   
    30    14    37 1   
    31    14    53 1   
    32    15    31 1   
    33    15    38 1   
    34    15    39 1   
    35    16    17 1   
    36    16    31 1   
    37    16    40 1   
    38    16    41 1   
    39    17    30 1   
    40    17    42 1   
    41    17    43 1   
    42    19    20 ar  
    43    19    44 1   
    44    20    21 1   
    45    20    23 ar  
    46    21    22 1   
    47    21    45 1   
    48    21    46 1   
    49    22    47 1   
    50    23    48 1   
    51    26    49 1   
    52    27    28 1   
    53    27    50 1   
    54    28    29 1   
    55    28    30 1   
    56    30    51 1   
    57    31    52 1   
@<TRIPOS>SUBSTRUCTURE
     1 2K0         1 TEMP              0 ****  ****    0 ROOT
