@<TRIPOS>MOLECULE
2K1
   14    14     1     0     0
SMALL
No Charge or Current Charge


@<TRIPOS>ATOM
      1 O          -11.9420    30.7920     3.2890 o          1 2K1      -0.705500
      2 C5         -11.2560    30.6570     4.2950 c          1 2K1       0.620500
      3 O1         -10.2430    31.3200     4.4810 o          1 2K1      -0.705500
      4 C4         -11.6700    29.6500     5.3330 cc         1 2K1       0.131500
      5 C3         -12.7690    28.8250     5.2910 cd         1 2K1      -0.217000
      6 C2         -12.7530    28.0550     6.4720 cd         1 2K1      -0.201000
      7 O2         -10.9680    29.4180     6.5030 os         1 2K1      -0.231000
      8 C1         -11.6510    28.4370     7.1860 cc         1 2K1       0.074300
      9 C          -11.1250    27.9670     8.5110 c3         1 2K1      -0.104400
     10 H2         -13.5050    28.7820     4.4950 ha         1 2K1       0.134000
     11 H3         -13.4770    27.3010     6.7650 ha         1 2K1       0.106000
     12 H4         -10.1160    27.5520     8.4040 hc         1 2K1       0.033367
     13 H5         -11.0790    28.7950     9.2270 hc         1 2K1       0.033367
     14 H6         -11.7690    27.1870     8.9340 hc         1 2K1       0.033367
@<TRIPOS>BOND
     1     1     2 1   
     2     2     3 1   
     3     2     4 1   
     4     4     5 2   
     5     4     7 1   
     6     5     6 1   
     7     5    10 1   
     8     6     8 2   
     9     6    11 1   
    10     7     8 1   
    11     8     9 1   
    12     9    12 1   
    13     9    13 1   
    14     9    14 1   
@<TRIPOS>SUBSTRUCTURE
     1 2K1         1 TEMP              0 ****  ****    0 ROOT
