@<TRIPOS>MOLECULE
2K1
   14    14     1     0     0
SMALL
abcg2


@<TRIPOS>ATOM
      1 O          -11.8590    30.7730     3.2750 o          1 2K1      -0.705500
      2 C5         -11.1390    30.5440     4.2810 c          1 2K1       0.620500
      3 O1         -10.0040    31.0260     4.5220 o          1 2K1      -0.705500
      4 C4         -11.7130    29.5930     5.2850 cc         1 2K1       0.131500
      5 C3         -12.8900    28.9070     5.3430 cd         1 2K1      -0.217000
      6 C2         -12.8800    28.1550     6.5560 cd         1 2K1      -0.201000
      7 O2         -10.9770    29.2970     6.4100 os         1 2K1      -0.231000
      8 C1         -11.6960    28.4260     7.1740 cc         1 2K1       0.074300
      9 C          -11.0820    27.9820     8.4530 c3         1 2K1      -0.104400
     10 H2         -13.6700    28.9350     4.6000 ha         1 2K1       0.134000
     11 H3         -13.6520    27.4980     6.9250 ha         1 2K1       0.106000
     12 H4         -10.0620    28.3590     8.5310 hc         1 2K1       0.033367
     13 H5         -11.6460    28.3490     9.3140 hc         1 2K1       0.033367
     14 H6         -11.0530    26.8930     8.5170 hc         1 2K1       0.033367
@<TRIPOS>BOND
     1     1     2 1   
     2     2     3 1   
     3     2     4 1   
     4     4     5 2   
     5     4     7 1   
     6     5     6 1   
     7     5    10 1   
     8     6     8 2   
     9     6    11 1   
    10     7     8 1   
    11     8     9 1   
    12     9    12 1   
    13     9    13 1   
    14     9    14 1   
@<TRIPOS>SUBSTRUCTURE
     1 2K1         1 TEMP              0 ****  ****    0 ROOT
