@<TRIPOS>MOLECULE
2K2
   73    81     1     0     0
SMALL
abcg2


@<TRIPOS>ATOM
      1 OAD         36.3710    29.8130    -9.0060 o          1 2K2      -0.560000
      2 CAX         36.6500    29.0330    -9.9060 c          1 2K2       0.587600
      3 NAU         35.8530    28.0390   -10.3580 ns         1 2K2      -0.521900
      4 CAS         36.4170    27.2650   -11.4330 c5         1 2K2       0.149300
      5 CBA         37.7470    27.9220   -11.6130 ca         1 2K2      -0.060300
      6 CBB         37.8840    28.9590   -10.7180 ca         1 2K2      -0.134600
      7 CBH         39.0620    29.7300   -10.6890 cp         1 2K2      -0.004000
      8 CBC         39.5290    30.8460    -9.9090 cp         1 2K2      -0.082000
      9 CAO         38.9890    31.6110    -8.8730 ca         1 2K2      -0.031000
     10 CAI         39.7300    32.6560    -8.3510 ca         1 2K2      -0.155000
     11 CAK         41.0050    32.9540    -8.8490 ca         1 2K2      -0.074000
     12 CAQ         41.5670    32.2130    -9.8720 ca         1 2K2      -0.159000
     13 CBE         40.8180    31.1580   -10.3910 ca         1 2K2      -0.004200
     14 NBM         45.3000    28.1600   -11.3770 n          1 2K2      -0.396800
     15 CBI         40.0960    29.4240   -11.5960 ca         1 2K2      -0.007200
     16 CBJ         39.9590    28.3570   -12.4960 ca         1 2K2       0.023800
     17 CBG         38.7770    27.6050   -12.5000 cp         1 2K2      -0.074000
     18 CBD         38.9490    26.5810   -13.4860 cp         1 2K2      -0.078000
     19 CAP         38.1180    25.5470   -13.9140 ca         1 2K2      -0.060000
     20 CAJ         38.5770    24.6740   -14.8810 ca         1 2K2      -0.139000
     21 CAL         39.8590    24.8320   -15.4120 ca         1 2K2      -0.087000
     22 CAR         40.6990    25.8550   -15.0070 ca         1 2K2      -0.139000
     23 CBF         40.2370    26.7490   -14.0390 ca         1 2K2       0.005800
     24 NBN         41.1430    30.2890   -11.3990 na         1 2K2      -0.111600
     25 CBQ         42.1930    28.3630   -13.5510 c6         1 2K2       0.319000
     26 CBP         43.0900    27.7480   -12.4400 c6         1 2K2       0.114300
     27 OAV         42.3900    27.5090   -11.2550 os         1 2K2      -0.446000
     28 CAA         42.0170    26.1720   -11.0080 c3         1 2K2       0.143900
     29 CAC         42.8070    28.1170   -14.9220 c3         1 2K2      -0.101100
     30 OAW         42.0990    29.7710   -13.4450 os         1 2K2      -0.447000
     31 CBK         42.3250    30.4210   -12.2340 c6         1 2K2       0.339300
     32 CAT         43.6260    29.9990   -11.5190 c6         1 2K2      -0.121400
     33 CAB         45.0890    27.7730    -9.9870 c3         1 2K2       0.088300
     34 CAY         46.3810    27.7160   -12.0650 c          1 2K2       0.608700
     35 OAE         46.4770    27.7780   -13.2830 o          1 2K2      -0.596100
     36 CAZ         47.5090    27.1280   -11.2770 ca         1 2K2      -0.141600
     37 CAM         47.8650    25.8020   -11.4990 ca         1 2K2      -0.078000
     38 CAG         48.9570    25.2550   -10.8390 ca         1 2K2      -0.114000
     39 CAF         49.7140    26.0370    -9.9770 ca         1 2K2      -0.093000
     40 CAH         49.3720    27.3670    -9.7700 ca         1 2K2      -0.114000
     41 CAN         48.2690    27.9110   -10.4120 ca         1 2K2      -0.078000
     42 NBO         40.8300    27.8550   -13.4400 na         1 2K2      -0.105600
     43 CBL         44.2110    28.7400   -12.1500 c6         1 2K2       0.102700
     44 H1          35.8010    27.3200   -12.3360 h1         1 2K2       0.057700
     45 H2          38.0040    31.3890    -8.4900 ha         1 2K2       0.150000
     46 H3          39.3200    33.2540    -7.5480 ha         1 2K2       0.115000
     47 H4          41.5650    33.7770    -8.4240 ha         1 2K2       0.109000
     48 H5          42.5550    32.4520   -10.2430 ha         1 2K2       0.110000
     49 H6          37.1270    25.4240   -13.4960 ha         1 2K2       0.114000
     50 H7          37.9460    23.8660   -15.2280 ha         1 2K2       0.115000
     51 H8          40.2140    24.1390   -16.1630 ha         1 2K2       0.112000
     52 H9          41.6780    25.9230   -15.4490 ha         1 2K2       0.118000
     53 H10         43.5160    26.8170   -12.8360 h1         1 2K2       0.067700
     54 H11         41.6880    26.1140    -9.9720 h1         1 2K2       0.038367
     55 H12         41.1960    25.8320   -11.6460 h1         1 2K2       0.038367
     56 H13         42.8620    25.4890   -11.1430 h1         1 2K2       0.038367
     57 H14         43.1390    27.0910   -15.0500 hc         1 2K2       0.064700
     58 H15         42.1090    28.3680   -15.7200 hc         1 2K2       0.064700
     59 H16         43.6840    28.7510   -15.0350 hc         1 2K2       0.064700
     60 H17         42.4030    31.4770   -12.5000 h2         1 2K2       0.092700
     61 H18         43.4200    29.8680   -10.4580 hc         1 2K2       0.073200
     62 H19         44.3550    30.8050   -11.6010 hc         1 2K2       0.073200
     63 H20         45.9300    28.0570    -9.3610 h1         1 2K2       0.047033
     64 H21         44.2120    28.2730    -9.5940 h1         1 2K2       0.047033
     65 H22         44.9310    26.6980    -9.8840 h1         1 2K2       0.047033
     66 H23         47.2860    25.1910   -12.1800 ha         1 2K2       0.120000
     67 H24         49.2190    24.2180   -11.0060 ha         1 2K2       0.117500
     68 H25         50.5700    25.6110    -9.4700 ha         1 2K2       0.116000
     69 H26         49.9630    27.9830    -9.1050 ha         1 2K2       0.117500
     70 H27         48.0070    28.9480   -10.2440 ha         1 2K2       0.120000
     71 H28         44.6530    29.0250   -13.1030 h1         1 2K2       0.097700
     72 H29         34.9310    27.8720    -9.9910 hn         1 2K2       0.331500
     73 H30         36.5110    26.2080   -11.1650 h1         1 2K2       0.057700
@<TRIPOS>BOND
     1     1     2 2   
     2     2     3 1   
     3     2     6 1   
     4     3     4 1   
     5     3    72 1   
     6     4     5 1   
     7     4    44 1   
     8     4    73 1   
     9     5     6 ar  
    10     5    17 ar  
    11     6     7 ar  
    12     7     8 1   
    13     7    15 ar  
    14     8     9 ar  
    15     8    13 ar  
    16     9    10 ar  
    17     9    45 1   
    18    10    11 ar  
    19    10    46 1   
    20    11    12 ar  
    21    11    47 1   
    22    12    13 ar  
    23    12    48 1   
    24    13    24 1   
    25    14    33 1   
    26    14    34 1   
    27    14    43 1   
    28    15    16 ar  
    29    15    24 1   
    30    16    17 ar  
    31    16    42 1   
    32    17    18 1   
    33    18    19 ar  
    34    18    23 ar  
    35    19    20 ar  
    36    19    49 1   
    37    20    21 ar  
    38    20    50 1   
    39    21    22 ar  
    40    21    51 1   
    41    22    23 ar  
    42    22    52 1   
    43    23    42 1   
    44    24    31 1   
    45    25    26 1   
    46    25    29 1   
    47    25    30 1   
    48    25    42 1   
    49    26    27 1   
    50    26    43 1   
    51    26    53 1   
    52    27    28 1   
    53    28    54 1   
    54    28    55 1   
    55    28    56 1   
    56    29    57 1   
    57    29    58 1   
    58    29    59 1   
    59    30    31 1   
    60    31    32 1   
    61    31    60 1   
    62    32    43 1   
    63    32    61 1   
    64    32    62 1   
    65    33    63 1   
    66    33    64 1   
    67    33    65 1   
    68    34    35 2   
    69    34    36 1   
    70    36    37 ar  
    71    36    41 ar  
    72    37    38 ar  
    73    37    66 1   
    74    38    39 ar  
    75    38    67 1   
    76    39    40 ar  
    77    39    68 1   
    78    40    41 ar  
    79    40    69 1   
    80    41    70 1   
    81    43    71 1   
@<TRIPOS>SUBSTRUCTURE
     1 2K2         1 TEMP              0 ****  ****    0 ROOT
