@<TRIPOS>MOLECULE
2K2
   73    81     1     0     0
SMALL
No Charge or Current Charge


@<TRIPOS>ATOM
      1 OAD         35.9360    30.4210    -9.5740 o          1 2K2      -0.560000
      2 CAX         36.2550    29.5860   -10.4030 c          1 2K2       0.587600
      3 NAU         35.3780    28.6690   -10.9680 ns         1 2K2      -0.521900
      4 CAS         36.0510    27.7740   -11.9430 c5         1 2K2       0.149300
      5 CBA         37.4610    28.2880   -11.8940 ca         1 2K2      -0.060300
      6 CBB         37.5910    29.3330   -11.0010 ca         1 2K2      -0.134600
      7 CBH         38.8560    29.9420   -10.7540 cp         1 2K2      -0.004000
      8 CBC         39.3780    31.0080    -9.8830 cp         1 2K2      -0.082000
      9 CAO         38.7690    31.8730    -8.9480 ca         1 2K2      -0.031000
     10 CAI         39.5740    32.8070    -8.2590 ca         1 2K2      -0.155000
     11 CAK         40.9670    32.8830    -8.4980 ca         1 2K2      -0.074000
     12 CAQ         41.5780    32.0240    -9.4320 ca         1 2K2      -0.159000
     13 CBE         40.7590    31.1050   -10.1010 ca         1 2K2      -0.004200
     14 NBM         45.4580    27.9920   -11.3080 n          1 2K2      -0.396800
     15 CBI         39.9450    29.4240   -11.4760 ca         1 2K2      -0.007200
     16 CBJ         39.8010    28.3660   -12.3770 ca         1 2K2       0.023800
     17 CBG         38.5620    27.7680   -12.6100 cp         1 2K2      -0.074000
     18 CBD         38.7640    26.6460   -13.5210 cp         1 2K2      -0.078000
     19 CAP         37.8660    25.6820   -14.0190 ca         1 2K2      -0.060000
     20 CAJ         38.3760    24.6350   -14.8130 ca         1 2K2      -0.139000
     21 CAL         39.7630    24.5380   -15.0750 ca         1 2K2      -0.087000
     22 CAR         40.6620    25.5000   -14.5680 ca         1 2K2      -0.139000
     23 CBF         40.1310    26.5670   -13.8230 ca         1 2K2       0.005800
     24 NBN         41.0710    30.1420   -11.0760 na         1 2K2      -0.111600
     25 CBQ         42.1270    28.1720   -13.3420 c6         1 2K2       0.319000
     26 CBP         43.1700    27.5150   -12.3440 c6         1 2K2       0.114300
     27 OAV         42.5710    27.0090   -11.1160 os         1 2K2      -0.446000
     28 CAA         42.1530    25.6310   -11.0900 c3         1 2K2       0.143900
     29 CAC         42.6290    28.0270   -14.8120 c3         1 2K2      -0.101100
     30 OAW         42.1210    29.6320   -13.2190 os         1 2K2      -0.447000
     31 CBK         42.2950    30.2450   -11.9090 c6         1 2K2       0.339300
     32 CAT         43.5800    29.7290   -11.1990 c6         1 2K2      -0.121400
     33 CAB         45.3960    27.7430    -9.8420 c3         1 2K2       0.088300
     34 CAY         46.4710    27.3720   -12.0840 c          1 2K2       0.608700
     35 OAE         46.2930    27.1610   -13.2780 o          1 2K2      -0.596100
     36 CAZ         47.8120    27.0560   -11.4510 ca         1 2K2      -0.141600
     37 CAM         48.5430    25.9350   -11.9040 ca         1 2K2      -0.078000
     38 CAG         49.7980    25.6270   -11.3520 ca         1 2K2      -0.114000
     39 CAF         50.3480    26.4440   -10.3520 ca         1 2K2      -0.093000
     40 CAH         49.6460    27.5770    -9.9130 ca         1 2K2      -0.114000
     41 CAN         48.3900    27.8880   -10.4620 ca         1 2K2      -0.078000
     42 NBO         40.7290    27.6630   -13.1470 na         1 2K2      -0.105600
     43 CBL         44.2580    28.5740   -11.9920 c6         1 2K2       0.102700
     44 H1          35.6300    27.8680   -12.9530 h1         1 2K2       0.057700
     45 H2          37.7040    31.8360    -8.7480 ha         1 2K2       0.150000
     46 H3          39.1170    33.4780    -7.5360 ha         1 2K2       0.115000
     47 H4          41.5690    33.6100    -7.9570 ha         1 2K2       0.109000
     48 H5          42.6480    32.0780    -9.6200 ha         1 2K2       0.110000
     49 H6          36.8060    25.7310   -13.7880 ha         1 2K2       0.114000
     50 H7          37.7000    23.8790   -15.2060 ha         1 2K2       0.115000
     51 H8          40.1430    23.7050   -15.6630 ha         1 2K2       0.112000
     52 H9          41.7260    25.3820   -14.7390 ha         1 2K2       0.118000
     53 H10         43.6630    26.6730   -12.8510 h1         1 2K2       0.067700
     54 H11         41.7450    25.3790   -10.1040 h1         1 2K2       0.038367
     55 H12         41.3780    25.4260   -11.8350 h1         1 2K2       0.038367
     56 H13         43.0040    24.9650   -11.2850 h1         1 2K2       0.038367
     57 H14         43.0330    27.0340   -15.0250 hc         1 2K2       0.064700
     58 H15         41.8250    28.2300   -15.5290 hc         1 2K2       0.064700
     59 H16         43.4400    28.7320   -15.0280 hc         1 2K2       0.064700
     60 H17         42.4150    31.3270   -12.0660 h2         1 2K2       0.092700
     61 H18         43.3210    29.4130   -10.1810 hc         1 2K2       0.073200
     62 H19         44.2900    30.5580   -11.0860 hc         1 2K2       0.073200
     63 H20         45.7440    28.6320    -9.3000 h1         1 2K2       0.047033
     64 H21         44.3720    27.5220    -9.5240 h1         1 2K2       0.047033
     65 H22         46.0190    26.8830    -9.5650 h1         1 2K2       0.047033
     66 H23         48.1300    25.2930   -12.6800 ha         1 2K2       0.120000
     67 H24         50.3450    24.7540   -11.7020 ha         1 2K2       0.117500
     68 H25         51.3210    26.2060    -9.9270 ha         1 2K2       0.116000
     69 H26         50.0790    28.2230    -9.1510 ha         1 2K2       0.117500
     70 H27         47.8820    28.7910   -10.1330 ha         1 2K2       0.120000
     71 H28         44.6140    29.0090   -12.9380 h1         1 2K2       0.097700
     72 H29         34.4020    28.6620   -10.6980 hn         1 2K2       0.331500
     73 H30         36.0040    26.7200   -11.6370 h1         1 2K2       0.057700
@<TRIPOS>BOND
     1     1     2 2   
     2     2     3 1   
     3     2     6 1   
     4     3     4 1   
     5     3    72 1   
     6     4     5 1   
     7     4    44 1   
     8     4    73 1   
     9     5     6 ar  
    10     5    17 ar  
    11     6     7 ar  
    12     7     8 1   
    13     7    15 ar  
    14     8     9 ar  
    15     8    13 ar  
    16     9    10 ar  
    17     9    45 1   
    18    10    11 ar  
    19    10    46 1   
    20    11    12 ar  
    21    11    47 1   
    22    12    13 ar  
    23    12    48 1   
    24    13    24 1   
    25    14    33 1   
    26    14    34 1   
    27    14    43 1   
    28    15    16 ar  
    29    15    24 1   
    30    16    17 ar  
    31    16    42 1   
    32    17    18 1   
    33    18    19 ar  
    34    18    23 ar  
    35    19    20 ar  
    36    19    49 1   
    37    20    21 ar  
    38    20    50 1   
    39    21    22 ar  
    40    21    51 1   
    41    22    23 ar  
    42    22    52 1   
    43    23    42 1   
    44    24    31 1   
    45    25    26 1   
    46    25    29 1   
    47    25    30 1   
    48    25    42 1   
    49    26    27 1   
    50    26    43 1   
    51    26    53 1   
    52    27    28 1   
    53    28    54 1   
    54    28    55 1   
    55    28    56 1   
    56    29    57 1   
    57    29    58 1   
    58    29    59 1   
    59    30    31 1   
    60    31    32 1   
    61    31    60 1   
    62    32    43 1   
    63    32    61 1   
    64    32    62 1   
    65    33    63 1   
    66    33    64 1   
    67    33    65 1   
    68    34    35 2   
    69    34    36 1   
    70    36    37 ar  
    71    36    41 ar  
    72    37    38 ar  
    73    37    66 1   
    74    38    39 ar  
    75    38    67 1   
    76    39    40 ar  
    77    39    68 1   
    78    40    41 ar  
    79    40    69 1   
    80    41    70 1   
    81    43    71 1   
@<TRIPOS>SUBSTRUCTURE
     1 2K2         1 TEMP              0 ****  ****    0 ROOT
