@<TRIPOS>MOLECULE
2K3
   21    20     1     0     0
SMALL
abcg2


@<TRIPOS>ATOM
      1 CAH         -2.5650     0.2520    -0.0570 c          1 2K3       0.735000
      2 OAC         -2.9580     0.7640    -1.1230 o          1 2K3      -0.727500
      3 OAE         -3.1380    -0.6290     0.6090 o          1 2K3      -0.727500
      4 CAF         -1.2100     0.7560     0.4660 c3         1 2K3      -0.305400
      5 CAI         -0.0480     0.1320    -0.2620 c          1 2K3       0.588100
      6 CAG          1.2860     0.8100    -0.0590 c3         1 2K3      -0.194400
      7 CAJ          2.5220    -0.0540    -0.2870 c3         1 2K3      -0.049700
      8 CAB          3.7720     0.8200    -0.2770 c3         1 2K3      -0.085100
      9 CAA          2.6250    -1.1550     0.7660 c3         1 2K3      -0.085100
     10 OAD         -0.1790    -0.8400    -0.9730 o          1 2K3      -0.528100
     11 HAF1        -1.1210     1.8450     0.3830 hc         1 2K3       0.035200
     12 HAF2        -1.0650     0.5220     1.5270 hc         1 2K3       0.035200
     13 HAG1         1.2850     1.6640    -0.7510 hc         1 2K3       0.047200
     14 HAG2         1.3120     1.2570     0.9400 hc         1 2K3       0.047200
     15 HAJ          2.4430    -0.5230    -1.2720 hc         1 2K3       0.060700
     16 HAB1         3.8840     1.3310     0.6830 hc         1 2K3       0.025867
     17 HAB2         4.6720     0.2240    -0.4380 hc         1 2K3       0.025867
     18 HAB3         3.7330     1.5830    -1.0560 hc         1 2K3       0.025867
     19 HAA1         2.6830    -0.7260     1.7690 hc         1 2K3       0.025867
     20 HAA2         1.7660    -1.8260     0.7400 hc         1 2K3       0.025867
     21 HAA3         3.5190    -1.7620     0.6160 hc         1 2K3       0.025867
@<TRIPOS>BOND
     1     1     2 1   
     2     1     3 1   
     3     1     4 1   
     4     4     5 1   
     5     4    11 1   
     6     4    12 1   
     7     5     6 1   
     8     5    10 2   
     9     6     7 1   
    10     6    13 1   
    11     6    14 1   
    12     7     8 1   
    13     7     9 1   
    14     7    15 1   
    15     8    16 1   
    16     8    17 1   
    17     8    18 1   
    18     9    19 1   
    19     9    20 1   
    20     9    21 1   
@<TRIPOS>SUBSTRUCTURE
     1 2K3         1 TEMP              0 ****  ****    0 ROOT
