@<TRIPOS>MOLECULE
2K3
   21    20     1     0     0
SMALL
No Charge or Current Charge


@<TRIPOS>ATOM
      1 CAH         -2.1260     0.7850     0.2540 c          1 2K3       0.735000
      2 OAC         -1.9580     1.9930     0.2590 o          1 2K3      -0.727500
      3 OAE         -3.1220     0.2390    -0.1910 o          1 2K3      -0.727500
      4 CAF         -0.9980    -0.0870     0.7570 c3         1 2K3      -0.305400
      5 CAI         -0.1130    -0.3180    -0.4570 c          1 2K3       0.588100
      6 CAG          1.1030     0.6090    -0.6400 c3         1 2K3      -0.194400
      7 CAJ          2.4410    -0.0720    -0.2420 c3         1 2K3      -0.049700
      8 CAB          3.6470     0.8290    -0.5910 c3         1 2K3      -0.085100
      9 CAA          2.4760    -0.4940     1.2450 c3         1 2K3      -0.085100
     10 OAD         -0.3550    -1.2070    -1.2640 o          1 2K3      -0.528100
     11 HAF1        -0.4050     0.4680     1.4930 hc         1 2K3       0.035200
     12 HAF2        -1.3770    -1.0680     1.0680 hc         1 2K3       0.035200
     13 HAG1         1.1610     0.8920    -1.6980 hc         1 2K3       0.047200
     14 HAG2         0.9830     1.5100    -0.0270 hc         1 2K3       0.047200
     15 HAJ          2.5410    -0.9860    -0.8430 hc         1 2K3       0.060700
     16 HAB1         3.6130     1.7650    -0.0210 hc         1 2K3       0.025867
     17 HAB2         4.5910     0.3200    -0.3590 hc         1 2K3       0.025867
     18 HAB3         3.6520     1.0760    -1.6590 hc         1 2K3       0.025867
     19 HAA1         2.3380     0.3740     1.9010 hc         1 2K3       0.025867
     20 HAA2         1.6880    -1.2240     1.4680 hc         1 2K3       0.025867
     21 HAA3         3.4380    -0.9600     1.4920 hc         1 2K3       0.025867
@<TRIPOS>BOND
     1     1     2 1   
     2     1     3 1   
     3     1     4 1   
     4     4     5 1   
     5     4    11 1   
     6     4    12 1   
     7     5     6 1   
     8     5    10 2   
     9     6     7 1   
    10     6    13 1   
    11     6    14 1   
    12     7     8 1   
    13     7     9 1   
    14     7    15 1   
    15     8    16 1   
    16     8    17 1   
    17     8    18 1   
    18     9    19 1   
    19     9    20 1   
    20     9    21 1   
@<TRIPOS>SUBSTRUCTURE
     1 2K3         1 TEMP              0 ****  ****    0 ROOT
