@<TRIPOS>MOLECULE
2K4
   16    17     1     0     0
SMALL
No Charge or Current Charge


@<TRIPOS>ATOM
      1 C5           0.8600    -1.0100    -0.1260 ca         1 2K4      -0.247000
      2 C2          -0.4630    -0.5600    -0.0550 ca         1 2K4       0.002800
      3 N6          -1.6430    -1.2760    -0.0340 na         1 2K4      -0.067400
      4 N7          -2.7450    -0.4010     0.0440 nc         1 2K4      -0.523100
      5 C3          -2.2060     0.8310     0.0670 cd         1 2K4       0.367800
      6 C1          -0.7650     0.7610     0.0060 ca         1 2K4      -0.267900
      7 C4           0.2170     1.7590     0.0020 ca         1 2K4       0.000000
      8 C8           1.5630     1.3380    -0.0680 ca         1 2K4      -0.174000
      9 C9           1.8810    -0.0380    -0.1320 ca         1 2K4       0.181100
     10 O10          3.1830    -0.4240    -0.2000 oh         1 2K4      -0.530100
     11 H5           1.0860    -2.0730    -0.1750 ha         1 2K4       0.120000
     12 H6          -1.7440    -2.2900    -0.0670 hn         1 2K4       0.374000
     13 H3          -2.8570     1.6950     0.1260 h4         1 2K4       0.048800
     14 H4          -0.0440     2.8150     0.0520 ha         1 2K4       0.121000
     15 H8           2.3590     2.0780    -0.0740 ha         1 2K4       0.131000
     16 H10          3.2070    -1.4040    -0.2370 ho         1 2K4       0.465000
@<TRIPOS>BOND
     1     1     2 ar  
     2     1     9 ar  
     3     1    11 1   
     4     2     3 1   
     5     2     6 ar  
     6     3     4 1   
     7     3    12 1   
     8     4     5 2   
     9     5     6 1   
    10     5    13 1   
    11     6     7 ar  
    12     7     8 ar  
    13     7    14 1   
    14     8     9 ar  
    15     8    15 1   
    16     9    10 1   
    17    10    16 1   
@<TRIPOS>SUBSTRUCTURE
     1 2K4         1 TEMP              0 ****  ****    0 ROOT
