@<TRIPOS>MOLECULE
2K4
   16    17     1     0     0
SMALL
bcc


@<TRIPOS>ATOM
      1 C5           0.8560    -1.0300    -0.1280 ca         1 2K4      -0.265000
      2 C2          -0.4650    -0.5720    -0.0570 ca         1 2K4       0.002800
      3 N6          -1.6420    -1.2350    -0.0330 na         1 2K4      -0.017100
      4 N7          -2.6940    -0.4090     0.0420 nc         1 2K4      -0.523100
      5 C3          -2.2120     0.8070     0.0670 cd         1 2K4       0.367800
      6 C1          -0.7930     0.7920     0.0070 ca         1 2K4      -0.267900
      7 C4           0.2360     1.7440     0.0000 ca         1 2K4      -0.018000
      8 C8           1.5370     1.3130    -0.0690 ca         1 2K4      -0.192000
      9 C9           1.8460    -0.0690    -0.1330 ca         1 2K4       0.181100
     10 O10          3.1560    -0.3780    -0.1980 oh         1 2K4      -0.491100
     11 H5           1.0880    -2.0880    -0.1770 ha         1 2K4       0.138000
     12 H6          -1.7920    -2.2300    -0.0620 hn         1 2K4       0.323700
     13 H3          -2.8730     1.6580     0.1280 h4         1 2K4       0.048800
     14 H4           0.0150     2.8030     0.0490 ha         1 2K4       0.139000
     15 H8           2.3500     2.0270    -0.0740 ha         1 2K4       0.149000
     16 H10          3.2760    -1.3330    -0.2320 ho         1 2K4       0.426000
@<TRIPOS>BOND
     1     1     2 ar  
     2     1     9 ar  
     3     1    11 1   
     4     2     3 1   
     5     2     6 ar  
     6     3     4 1   
     7     3    12 1   
     8     4     5 2   
     9     5     6 1   
    10     5    13 1   
    11     6     7 ar  
    12     7     8 ar  
    13     7    14 1   
    14     8     9 ar  
    15     8    15 1   
    16     9    10 1   
    17    10    16 1   
@<TRIPOS>SUBSTRUCTURE
     1 2K4         1 TEMP              0 ****  ****    0 ROOT
