@<TRIPOS>MOLECULE
2K5
   57    60     1     0     0
SMALL
bcc


@<TRIPOS>ATOM
      1 C21          8.4960    -2.4170     0.0850 c3         1 2K5       0.126700
      2 O2           7.1570    -2.7090     0.4290 os         1 2K5      -0.319400
      3 C16          6.2210    -1.7520     0.2830 ca         1 2K5       0.179100
      4 C15          4.9290    -2.0910     0.6750 ca         1 2K5      -0.200000
      5 C17          6.4970    -0.4830    -0.2280 ca         1 2K5      -0.304000
      6 C18          5.4580     0.4400    -0.3400 ca         1 2K5       0.179100
      7 O1           5.6270     1.6900    -0.8150 os         1 2K5      -0.319400
      8 C20          6.9180     2.1010    -1.2170 c3         1 2K5       0.126700
      9 C19          4.1660     0.1030     0.0520 ca         1 2K5      -0.200000
     10 C14          3.9020    -1.1620     0.5600 ca         1 2K5      -0.013300
     11 C13          2.5000    -1.5470     0.9390 c3         1 2K5      -0.033100
     12 C12          1.7700    -2.2250    -0.2320 c3         1 2K5      -0.015100
     13 C11          0.3780    -2.6160     0.1230 cc         1 2K5      -0.082600
     14 C10         -0.8200    -1.9600    -0.0770 cd         1 2K5      -0.298300
     15 N5           0.0820    -3.7370     0.7960 na         1 2K5      -0.000600
     16 N6          -1.2200    -3.8740     1.0540 nc         1 2K5      -0.584800
     17 C9          -1.7780    -2.7980     0.5290 cd         1 2K5       0.572200
     18 N4          -3.1520    -2.6740     0.6500 nu         1 2K5      -0.833600
     19 C8          -3.9560    -1.6750     0.2160 ca         1 2K5       0.760200
     20 C7          -5.3420    -1.7480     0.4670 ca         1 2K5      -0.485600
     21 C6          -6.0880    -0.6980    -0.0010 ca         1 2K5       0.503200
     22 N2          -5.5770     0.3460    -0.6550 nb         1 2K5      -0.794000
     23 N3          -3.4270    -0.6510    -0.4340 nb         1 2K5      -0.838000
     24 C5          -4.2620     0.3100    -0.8440 ca         1 2K5       0.945900
     25 N1          -3.6860     1.3180    -1.5400 nu         1 2K5      -0.868900
     26 C4          -4.3690     2.5190    -1.9330 c3         1 2K5       0.200500
     27 C3          -4.2720     3.6140    -0.9230 cc         1 2K5       0.255000
     28 C2          -3.8910     4.9090    -1.0140 cd         1 2K5      -0.397600
     29 O           -4.6050     3.3410     0.3400 os         1 2K5      -0.097100
     30 N           -4.4450     4.4580     1.1100 nc         1 2K5      -0.363300
     31 C1          -4.0250     5.3990     0.3130 cd         1 2K5       0.340600
     32 C           -3.7400     6.7680     0.8150 c3         1 2K5      -0.132400
     33 H1           8.8990    -1.5920     0.6780 h1         1 2K5       0.040700
     34 H2           9.0720    -3.3140     0.2990 h1         1 2K5       0.040700
     35 H3           8.6040    -2.1760    -0.9760 h1         1 2K5       0.040700
     36 H4           4.7340    -3.0800     1.0730 ha         1 2K5       0.146000
     37 H5           7.5000    -0.2200    -0.5300 ha         1 2K5       0.139000
     38 H6           7.2960     1.5020    -2.0490 h1         1 2K5       0.040700
     39 H7           6.8250     3.1330    -1.5450 h1         1 2K5       0.040700
     40 H8           7.6360     2.0560    -0.3950 h1         1 2K5       0.040700
     41 H9           3.3720     0.8360    -0.0380 ha         1 2K5       0.146000
     42 H10          2.5180    -2.2250     1.7960 hc         1 2K5       0.056700
     43 H11          1.9360    -0.6630     1.2450 hc         1 2K5       0.056700
     44 H12          1.7360    -1.5420    -1.0810 hc         1 2K5       0.061700
     45 H13          2.3360    -3.1020    -0.5550 hc         1 2K5       0.061700
     46 H14         -0.9760    -1.0250    -0.5810 ha         1 2K5       0.184000
     47 H15          0.7220    -4.4520     1.1010 hn         1 2K5       0.320700
     48 H16         -3.6030    -3.4350     1.1360 hn         1 2K5       0.457800
     49 H17         -5.7890    -2.5790     0.9940 ha         1 2K5       0.150000
     50 H18         -7.1610    -0.6840     0.1590 h4         1 2K5       0.019100
     51 H19         -2.6790     1.3140    -1.5830 hn         1 2K5       0.448800
     52 H20         -3.9440     2.8850    -2.8670 h1         1 2K5       0.083200
     53 H21         -5.4160     2.2850    -2.1290 h1         1 2K5       0.083200
     54 H22         -3.5580     5.4410    -1.8890 ha         1 2K5       0.167000
     55 H23         -4.3540     7.5030     0.2960 hc         1 2K5       0.055033
     56 H24         -3.9390     6.8450     1.8820 hc         1 2K5       0.055033
     57 H25         -2.6970     7.0310     0.6400 hc         1 2K5       0.055033
@<TRIPOS>BOND
     1     1     2 1   
     2     1    33 1   
     3     1    34 1   
     4     1    35 1   
     5     2     3 1   
     6     3     4 ar  
     7     3     5 ar  
     8     4    10 ar  
     9     4    36 1   
    10     5     6 ar  
    11     5    37 1   
    12     6     7 1   
    13     6     9 ar  
    14     7     8 1   
    15     8    38 1   
    16     8    39 1   
    17     8    40 1   
    18     9    10 ar  
    19     9    41 1   
    20    10    11 1   
    21    11    12 1   
    22    11    42 1   
    23    11    43 1   
    24    12    13 1   
    25    12    44 1   
    26    12    45 1   
    27    13    14 2   
    28    13    15 1   
    29    14    17 1   
    30    14    46 1   
    31    15    16 1   
    32    15    47 1   
    33    16    17 2   
    34    17    18 1   
    35    18    19 1   
    36    18    48 1   
    37    19    20 ar  
    38    19    23 ar  
    39    20    21 ar  
    40    20    49 1   
    41    21    22 ar  
    42    21    50 1   
    43    22    24 ar  
    44    23    24 ar  
    45    24    25 1   
    46    25    26 1   
    47    25    51 1   
    48    26    27 1   
    49    26    52 1   
    50    26    53 1   
    51    27    28 2   
    52    27    29 1   
    53    28    31 1   
    54    28    54 1   
    55    29    30 1   
    56    30    31 2   
    57    31    32 1   
    58    32    55 1   
    59    32    56 1   
    60    32    57 1   
@<TRIPOS>SUBSTRUCTURE
     1 2K5         1 TEMP              0 ****  ****    0 ROOT
