@<TRIPOS>MOLECULE
2K5
   57    60     1     0     0
SMALL
No Charge or Current Charge


@<TRIPOS>ATOM
      1 C21          8.7850    -2.6610     0.1040 c3         1 2K5       0.149900
      2 O2           7.4160    -2.8150     0.5180 os         1 2K5      -0.342600
      3 C16          6.4570    -1.8540     0.2700 ca         1 2K5       0.179100
      4 C15          5.1520    -2.1070     0.7180 ca         1 2K5      -0.182000
      5 C17          6.7460    -0.6510    -0.4070 ca         1 2K5      -0.286000
      6 C18          5.7190     0.2890    -0.6300 ca         1 2K5       0.179100
      7 O1           5.9350     1.4830    -1.2870 os         1 2K5      -0.342600
      8 C20          7.2280     1.8590    -1.7950 c3         1 2K5       0.149900
      9 C19          4.4180     0.0230    -0.1760 ca         1 2K5      -0.182000
     10 C14          4.1250    -1.1730     0.5010 ca         1 2K5      -0.013300
     11 C13          2.7090    -1.4570     0.9850 c3         1 2K5      -0.033100
     12 C12          1.8630    -2.1780    -0.0840 c3         1 2K5      -0.015100
     13 C11          0.4560    -2.4520     0.3750 cc         1 2K5      -0.133300
     14 C10         -0.7080    -1.7900     0.1070 cd         1 2K5      -0.215000
     15 N5           0.0520    -3.5020     1.2040 na         1 2K5      -0.000200
     16 N6          -1.3150    -3.5130     1.4640 nc         1 2K5      -0.584800
     17 C9          -1.7290    -2.4740     0.7890 cd         1 2K5       0.506900
     18 N4          -3.0500    -2.1860     0.8260 nu         1 2K5      -0.888800
     19 C8          -3.8600    -1.2130     0.2700 ca         1 2K5       0.431900
     20 C7          -5.2290    -1.2270     0.5480 ca         1 2K5      -0.337000
     21 C6          -6.0200    -0.2260    -0.0330 ca         1 2K5       0.174900
     22 N2          -5.4810     0.7150    -0.8280 nb         1 2K5      -0.268000
     23 N3          -3.3140    -0.2790    -0.5220 nb         1 2K5      -0.312000
     24 C5          -4.1520     0.6360    -1.0270 ca         1 2K5       0.419900
     25 N1          -3.5590     1.5880    -1.8400 nu         1 2K5      -0.924100
     26 C4          -4.1940     2.7950    -2.4320 c3         1 2K5       0.200500
     27 C3          -4.6480     3.7860    -1.3820 cc         1 2K5       0.145300
     28 C2          -4.1250     4.1370    -0.1750 cd         1 2K5      -0.249000
     29 O           -5.7910     4.5210    -1.5890 os         1 2K5      -0.052700
     30 N           -6.0000     5.3800    -0.4450 nc         1 2K5      -0.363300
     31 C1          -4.9860     5.1080     0.3570 cd         1 2K5       0.275300
     32 C           -4.8420     5.8060     1.6790 c3         1 2K5      -0.132400
     33 H1           9.2370    -1.7760     0.5700 h1         1 2K5       0.040700
     34 H2           9.3730    -3.5390     0.4010 h1         1 2K5       0.040700
     35 H3           8.8540    -2.5600    -0.9870 h1         1 2K5       0.040700
     36 H4           4.9400    -3.0380     1.2370 ha         1 2K5       0.128000
     37 H5           7.7520    -0.4510    -0.7550 ha         1 2K5       0.121000
     38 H6           7.5810     1.1330    -2.5380 h1         1 2K5       0.040700
     39 H7           7.1740     2.8420    -2.2790 h1         1 2K5       0.040700
     40 H8           7.9630     1.9200    -0.9830 h1         1 2K5       0.040700
     41 H9           3.6330     0.7530    -0.3550 ha         1 2K5       0.128000
     42 H10          2.7370    -2.0680     1.8950 hc         1 2K5       0.056700
     43 H11          2.2110    -0.5200     1.2620 hc         1 2K5       0.056700
     44 H12          1.8400    -1.5660    -0.9940 hc         1 2K5       0.061700
     45 H13          2.3550    -3.1200    -0.3580 hc         1 2K5       0.061700
     46 H14         -0.8120    -0.9090    -0.5100 ha         1 2K5       0.166000
     47 H15          0.6670    -4.2120     1.6020 hn         1 2K5       0.371000
     48 H16         -3.5450    -2.8550     1.4060 hn         1 2K5       0.513000
     49 H17         -5.6730    -1.9830     1.1890 ha         1 2K5       0.132000
     50 H18         -7.0940    -0.1740     0.1390 h4         1 2K5       0.019100
     51 H19         -2.5490     1.4820    -1.9550 hn         1 2K5       0.504000
     52 H20         -3.4870     3.3070    -3.0990 h1         1 2K5       0.083200
     53 H21         -5.0610     2.5060    -3.0440 h1         1 2K5       0.083200
     54 H22         -3.2280     3.7380     0.2820 ha         1 2K5       0.149000
     55 H23         -4.7470     6.8890     1.5420 hc         1 2K5       0.055033
     56 H24         -5.7120     5.6190     2.3180 hc         1 2K5       0.055033
     57 H25         -3.9510     5.4560     2.2140 hc         1 2K5       0.055033
@<TRIPOS>BOND
     1     1     2 1   
     2     1    33 1   
     3     1    34 1   
     4     1    35 1   
     5     2     3 1   
     6     3     4 ar  
     7     3     5 ar  
     8     4    10 ar  
     9     4    36 1   
    10     5     6 ar  
    11     5    37 1   
    12     6     7 1   
    13     6     9 ar  
    14     7     8 1   
    15     8    38 1   
    16     8    39 1   
    17     8    40 1   
    18     9    10 ar  
    19     9    41 1   
    20    10    11 1   
    21    11    12 1   
    22    11    42 1   
    23    11    43 1   
    24    12    13 1   
    25    12    44 1   
    26    12    45 1   
    27    13    14 2   
    28    13    15 1   
    29    14    17 1   
    30    14    46 1   
    31    15    16 1   
    32    15    47 1   
    33    16    17 2   
    34    17    18 1   
    35    18    19 1   
    36    18    48 1   
    37    19    20 ar  
    38    19    23 ar  
    39    20    21 ar  
    40    20    49 1   
    41    21    22 ar  
    42    21    50 1   
    43    22    24 ar  
    44    23    24 ar  
    45    24    25 1   
    46    25    26 1   
    47    25    51 1   
    48    26    27 1   
    49    26    52 1   
    50    26    53 1   
    51    27    28 2   
    52    27    29 1   
    53    28    31 1   
    54    28    54 1   
    55    29    30 1   
    56    30    31 2   
    57    31    32 1   
    58    32    55 1   
    59    32    56 1   
    60    32    57 1   
@<TRIPOS>SUBSTRUCTURE
     1 2K5         1 TEMP              0 ****  ****    0 ROOT
