@<TRIPOS>MOLECULE
2K6
   31    31     1     0     0
SMALL
abcg2


@<TRIPOS>ATOM
      1 C1           4.9860    -0.9600     0.8040 c3         1 2K6       0.147900
      2 O1           4.2790    -0.4850    -0.3250 os         1 2K6      -0.340100
      3 C2           2.9430    -0.3400    -0.2330 ca         1 2K6       0.146100
      4 C3           2.2890     0.1350    -1.3710 ca         1 2K6      -0.169500
      5 C4           0.9170     0.3130    -1.3610 ca         1 2K6      -0.063500
      6 C5           2.1960    -0.6290     0.9070 ca         1 2K6      -0.169500
      7 C6           0.8200    -0.4430     0.8950 ca         1 2K6      -0.063500
      8 C7           0.1540     0.0270    -0.2310 ca         1 2K6      -0.131300
      9 C8          -1.3420     0.2260    -0.2380 c3         1 2K6       0.012600
     10 C9          -2.0720    -1.0950    -0.0030 c3         1 2K6      -0.186400
     11 C10         -3.5580    -1.0820    -0.2720 c          1 2K6       0.569100
     12 C11         -4.2990    -2.3090     0.1770 c3         1 2K6      -0.201100
     13 C12         -1.7660     1.2620     0.8200 c3         1 2K6      -0.013300
     14 C13         -1.1050     2.5410     0.6150 c1         1 2K6       0.304900
     15 N1          -0.5870     3.5540     0.4410 n1         1 2K6      -0.464000
     16 H1           4.6660    -1.9640     1.0960 h1         1 2K6       0.041367
     17 H2           6.0340    -0.9970     0.5200 h1         1 2K6       0.041367
     18 H3           4.8780    -0.2930     1.6640 h1         1 2K6       0.041367
     19 H4           2.8630     0.3660    -2.2600 ha         1 2K6       0.123500
     20 H5           0.4310     0.6850    -2.2550 ha         1 2K6       0.111500
     21 H6           2.6620    -0.9970     1.8100 ha         1 2K6       0.123500
     22 H7           0.2680    -0.6770     1.7980 ha         1 2K6       0.111500
     23 H8          -1.6300     0.6110    -1.2190 hc         1 2K6       0.077700
     24 H9          -1.6490    -1.8650    -0.6590 hc         1 2K6       0.067200
     25 H10         -1.8980    -1.4690     1.0110 hc         1 2K6       0.067200
     26 H13         -4.2760    -2.3660     1.2670 hc         1 2K6       0.062367
     27 H14         -5.3350    -2.2980    -0.1560 hc         1 2K6       0.062367
     28 H15         -3.8070    -3.2110    -0.1920 hc         1 2K6       0.062367
     29 H16         -2.8420     1.4360     0.7900 hc         1 2K6       0.073200
     30 H17         -1.5230     0.9120     1.8260 hc         1 2K6       0.073200
     31 O2          -4.1080    -0.1540    -0.8210 o          1 2K6      -0.519100
@<TRIPOS>BOND
     1     1     2 1   
     2     1    16 1   
     3     1    17 1   
     4     1    18 1   
     5     2     3 1   
     6     3     4 ar  
     7     3     6 ar  
     8     4     5 ar  
     9     4    19 1   
    10     5     8 ar  
    11     5    20 1   
    12     6     7 ar  
    13     6    21 1   
    14     7     8 ar  
    15     7    22 1   
    16     8     9 1   
    17     9    10 1   
    18     9    13 1   
    19     9    23 1   
    20    10    11 1   
    21    10    24 1   
    22    10    25 1   
    23    11    12 1   
    24    11    31 2   
    25    12    26 1   
    26    12    27 1   
    27    12    28 1   
    28    13    14 1   
    29    13    29 1   
    30    13    30 1   
    31    14    15 3   
@<TRIPOS>SUBSTRUCTURE
     1 2K6         1 TEMP              0 ****  ****    0 ROOT
