@<TRIPOS>MOLECULE
2K6
   31    31     1     0     0
SMALL
No Charge or Current Charge


@<TRIPOS>ATOM
      1 C1           5.1320    -0.9100     0.8220 c3         1 2K6       0.147900
      2 O1           4.3750    -0.3100    -0.2440 os         1 2K6      -0.340100
      3 C2           2.9970    -0.2400    -0.2190 ca         1 2K6       0.146100
      4 C3           2.3510     0.3650    -1.3080 ca         1 2K6      -0.169500
      5 C4           0.9500     0.4670    -1.3400 ca         1 2K6      -0.063500
      6 C5           2.2270    -0.7490     0.8480 ca         1 2K6      -0.169500
      7 C6           0.8250    -0.6490     0.8160 ca         1 2K6      -0.063500
      8 C7           0.1740    -0.0390    -0.2770 ca         1 2K6      -0.131300
      9 C8          -1.3540     0.0790    -0.3180 c3         1 2K6       0.012600
     10 C9          -1.9960    -1.3360    -0.3810 c3         1 2K6      -0.186400
     11 C10         -3.5090    -1.2980    -0.6370 c          1 2K6       0.569100
     12 C11         -4.4160    -1.6940     0.5270 c3         1 2K6      -0.201100
     13 C12         -1.8990     0.9410     0.8580 c3         1 2K6      -0.013300
     14 C13         -1.3270     2.2930     0.9040 c1         1 2K6       0.304900
     15 N1          -0.9000     3.3770     0.9470 n1         1 2K6      -0.464000
     16 H1           4.8600    -1.9660     0.9470 h1         1 2K6       0.041367
     17 H2           6.2050    -0.8600     0.6010 h1         1 2K6       0.041367
     18 H3           4.9550    -0.3850     1.7700 h1         1 2K6       0.041367
     19 H4           2.9400     0.7590    -2.1320 ha         1 2K6       0.123500
     20 H5           0.4700     0.9410    -2.1940 ha         1 2K6       0.111500
     21 H6           2.6950    -1.2250     1.7050 ha         1 2K6       0.123500
     22 H7           0.2470    -1.0470     1.6470 ha         1 2K6       0.111500
     23 H8          -1.6380     0.5940    -1.2460 hc         1 2K6       0.077700
     24 H9          -1.5280    -1.8850    -1.2060 hc         1 2K6       0.067200
     25 H10         -1.7990    -1.8610     0.5610 hc         1 2K6       0.067200
     26 H13         -4.1420    -1.1160     1.4170 hc         1 2K6       0.062367
     27 H14         -5.4810    -1.5990     0.2850 hc         1 2K6       0.062367
     28 H15         -4.1670    -2.7170     0.8310 hc         1 2K6       0.062367
     29 H16         -2.9860     1.0460     0.7730 hc         1 2K6       0.073200
     30 H17         -1.7000     0.4460     1.8150 hc         1 2K6       0.073200
     31 O2          -3.9690    -0.9860    -1.7280 o          1 2K6      -0.519100
@<TRIPOS>BOND
     1     1     2 1   
     2     1    16 1   
     3     1    17 1   
     4     1    18 1   
     5     2     3 1   
     6     3     4 ar  
     7     3     6 ar  
     8     4     5 ar  
     9     4    19 1   
    10     5     8 ar  
    11     5    20 1   
    12     6     7 ar  
    13     6    21 1   
    14     7     8 ar  
    15     7    22 1   
    16     8     9 1   
    17     9    10 1   
    18     9    13 1   
    19     9    23 1   
    20    10    11 1   
    21    10    24 1   
    22    10    25 1   
    23    11    12 1   
    24    11    31 2   
    25    12    26 1   
    26    12    27 1   
    27    12    28 1   
    28    13    14 1   
    29    13    29 1   
    30    13    30 1   
    31    14    15 3   
@<TRIPOS>SUBSTRUCTURE
     1 2K6         1 TEMP              0 ****  ****    0 ROOT
