@<TRIPOS>MOLECULE
2K7
   57    60     1     0     0
SMALL
No Charge or Current Charge


@<TRIPOS>ATOM
      1 C1          85.2620     3.6570    12.5730 cc         1 2K7       0.289300
      2 C2          84.6250     3.7250    11.3260 cc         1 2K7      -0.234000
      3 C3          85.4770     4.4210    10.5310 cd         1 2K7       0.180300
      4 N6          88.5670    -0.6840     9.7480 na         1 2K7      -0.060200
      5 C7          84.4430     0.1130     7.3330 ca         1 2K7      -0.336000
      6 C8          85.4170     0.6600     8.1710 ca         1 2K7       0.425900
      7 C9          87.4040     0.0650     9.6200 cc         1 2K7       0.242000
      8 C10         87.4440     0.9130    10.6800 cd         1 2K7      -0.225000
      9 C11         88.6390     0.6570    11.3810 cd         1 2K7       0.273300
     10 C12         89.0980     1.3490    12.6370 c3         1 2K7      -0.105700
     11 C13         88.3910     0.8080    13.8980 c3         1 2K7      -0.027100
     12 C14         88.8740     1.4910    15.1720 ca         1 2K7      -0.051300
     13 C15         89.7480     0.8290    16.0480 ca         1 2K7      -0.133000
     14 C16         90.1890     1.4660    17.2180 ca         1 2K7      -0.093000
     15 C19         88.4460     2.7940    15.4770 ca         1 2K7      -0.183000
     16 C20         87.5640     5.4770    16.0630 c3         1 2K7       0.145900
     17 C21         89.9830     4.5940    19.2430 c3         1 2K7       0.149900
     18 C17         89.7710     2.7700    17.5390 ca         1 2K7       0.066100
     19 C18         88.8810     3.4540    16.6520 ca         1 2K7       0.115100
     20 O1          88.4480     4.7410    16.9300 os         1 2K7      -0.343100
     21 N5          89.3510    -0.3150    10.8370 nc         1 2K7      -0.517800
     22 N4          86.4210    -0.1500     8.6790 nu         1 2K7      -0.935900
     23 C6          83.4430     0.9730     6.8580 ca         1 2K7       0.174900
     24 N2          83.4260     2.2770     7.1920 nb         1 2K7      -0.267000
     25 N3          85.4150     1.9590     8.5030 nb         1 2K7      -0.291000
     26 C5          84.4160     2.7000     7.9960 ca         1 2K7       0.408900
     27 N1          84.3790     4.0500     8.3110 nu         1 2K7      -0.933100
     28 C4          85.3880     4.8360     9.0740 c3         1 2K7       0.206500
     29 O           86.5870     4.7740    11.2570 os         1 2K7      -0.101700
     30 N           86.4350     4.2670    12.5980 nd         1 2K7      -0.376300
     31 C           84.6660     2.9450    13.7510 c3         1 2K7      -0.137400
     32 H1          83.6640     3.2990    11.0650 ha         1 2K7       0.156000
     33 H2          88.8530    -1.4320     9.1240 hn         1 2K7       0.365000
     34 H3          84.4480    -0.9390     7.0640 ha         1 2K7       0.132000
     35 H4          86.6900     1.6370    10.9490 ha         1 2K7       0.163000
     36 H5          90.1820     1.2350    12.7570 hc         1 2K7       0.062200
     37 H6          88.9080     2.4250    12.5500 hc         1 2K7       0.062200
     38 H7          87.3090     0.9470    13.7900 hc         1 2K7       0.050200
     39 H8          88.5540    -0.2760    13.9610 hc         1 2K7       0.050200
     40 H9          90.0900    -0.1790    15.8240 ha         1 2K7       0.117000
     41 H10         90.8660     0.9420    17.8880 ha         1 2K7       0.124000
     42 H11         87.7730     3.2810    14.7820 ha         1 2K7       0.130000
     43 H12         87.3640     6.4710    16.4810 h1         1 2K7       0.043367
     44 H13         88.0110     5.6100    15.0700 h1         1 2K7       0.043367
     45 H14         86.6030     4.9570    15.9520 h1         1 2K7       0.043367
     46 H15         90.5090     4.7530    20.1930 h1         1 2K7       0.036033
     47 H16         90.3080     5.3760    18.5450 h1         1 2K7       0.036033
     48 H17         88.9080     4.7060    19.4350 h1         1 2K7       0.036033
     49 H18         86.4720    -1.0580     8.2170 hn         1 2K7       0.501000
     50 H19         82.6470     0.6180     6.2050 h4         1 2K7       0.024100
     51 H20         83.6000     4.5640     7.8920 hn         1 2K7       0.517000
     52 H21         86.3820     4.7250     8.6160 h1         1 2K7       0.080200
     53 H22         85.1360     5.9050     9.0440 h1         1 2K7       0.080200
     54 H23         85.1750     3.2210    14.6820 hc         1 2K7       0.058700
     55 H24         83.6050     3.1950    13.8600 hc         1 2K7       0.058700
     56 H25         84.7500     1.8600    13.6270 hc         1 2K7       0.058700
     57 O2          90.2800     3.2850    18.7260 os         1 2K7      -0.357100
@<TRIPOS>BOND
     1     1     2 1   
     2     1    30 2   
     3     1    31 1   
     4     2     3 2   
     5     2    32 1   
     6     3    28 1   
     7     3    29 1   
     8     4     7 1   
     9     4    21 1   
    10     4    33 1   
    11     5     6 ar  
    12     5    23 ar  
    13     5    34 1   
    14     6    22 1   
    15     6    25 ar  
    16     7     8 2   
    17     7    22 1   
    18     8     9 1   
    19     8    35 1   
    20     9    10 1   
    21     9    21 2   
    22    10    11 1   
    23    10    36 1   
    24    10    37 1   
    25    11    12 1   
    26    11    38 1   
    27    11    39 1   
    28    12    13 ar  
    29    12    15 ar  
    30    13    14 ar  
    31    13    40 1   
    32    14    18 ar  
    33    14    41 1   
    34    15    19 ar  
    35    15    42 1   
    36    16    20 1   
    37    16    43 1   
    38    16    44 1   
    39    16    45 1   
    40    17    46 1   
    41    17    47 1   
    42    17    48 1   
    43    17    57 1   
    44    18    19 ar  
    45    18    57 1   
    46    19    20 1   
    47    22    49 1   
    48    23    24 ar  
    49    23    50 1   
    50    24    26 ar  
    51    25    26 ar  
    52    26    27 1   
    53    27    28 1   
    54    27    51 1   
    55    28    52 1   
    56    28    53 1   
    57    29    30 1   
    58    31    54 1   
    59    31    55 1   
    60    31    56 1   
@<TRIPOS>SUBSTRUCTURE
     1 2K7         1 TEMP              0 ****  ****    0 ROOT
