@<TRIPOS>MOLECULE
2K7
   57    60     1     0     0
SMALL
abcg2


@<TRIPOS>ATOM
      1 C1          84.9280     3.5030    12.7590 cc         1 2K7       0.289300
      2 C2          84.4410     3.4670    11.4200 cc         1 2K7      -0.234000
      3 C3          85.3220     4.2190    10.7190 cd         1 2K7       0.180300
      4 N6          88.5620    -0.6350     9.8370 na         1 2K7      -0.060200
      5 C7          84.7900     0.1870     7.0620 ca         1 2K7      -0.336000
      6 C8          85.6710     0.7000     8.0320 ca         1 2K7       0.425900
      7 C9          87.4980     0.1700     9.6010 cc         1 2K7       0.242000
      8 C10         87.4960     1.1240    10.6060 cd         1 2K7      -0.225000
      9 C11         88.6080     0.7980    11.4150 cd         1 2K7       0.273300
     10 C12         89.0330     1.4620    12.6840 c3         1 2K7      -0.105700
     11 C13         88.1760     1.0190    13.8890 c3         1 2K7      -0.027100
     12 C14         88.6380     1.6420    15.1800 ca         1 2K7      -0.051300
     13 C15         89.5970     1.0160    15.9710 ca         1 2K7      -0.133000
     14 C16         90.0510     1.6270    17.1370 ca         1 2K7      -0.093000
     15 C19         88.1340     2.8840    15.5790 ca         1 2K7      -0.183000
     16 C20         87.0890     5.3450    16.4650 c3         1 2K7       0.145900
     17 C21         90.8860     4.5120    18.5670 c3         1 2K7       0.149900
     18 C17         89.5520     2.8560    17.5350 ca         1 2K7       0.066100
     19 C18         88.5720     3.4930    16.7520 ca         1 2K7       0.115100
     20 O1          88.1020     4.6810    17.2200 os         1 2K7      -0.343100
     21 N5          89.2520    -0.2700    10.9500 nc         1 2K7      -0.517800
     22 N4          86.6640    -0.0990     8.5310 nu         1 2K7      -0.935900
     23 C6          83.8020     1.0440     6.6300 ca         1 2K7       0.174900
     24 N2          83.6610     2.3000     7.0710 nb         1 2K7      -0.267000
     25 N3          85.5640     1.9480     8.4830 nb         1 2K7      -0.291000
     26 C5          84.5700     2.6930     7.9800 ca         1 2K7       0.408900
     27 N1          84.4650     3.9690     8.4340 nu         1 2K7      -0.933100
     28 C4          85.4460     4.6010     9.2790 c3         1 2K7       0.206500
     29 O           86.2780     4.6890    11.5430 os         1 2K7      -0.101700
     30 N           86.0170     4.2250    12.8500 nd         1 2K7      -0.376300
     31 C           84.3550     2.8310    13.9580 c3         1 2K7      -0.137400
     32 H1          83.5770     2.9460    11.0460 ha         1 2K7       0.156000
     33 H2          88.8620    -1.4270     9.2900 hn         1 2K7       0.365000
     34 H3          84.8740    -0.8260     6.6940 ha         1 2K7       0.132000
     35 H4          86.7940     1.9230    10.7350 ha         1 2K7       0.163000
     36 H5          90.0800     1.2210    12.8820 hc         1 2K7       0.062200
     37 H6          88.9600     2.5470    12.5780 hc         1 2K7       0.062200
     38 H7          87.1350     1.2850    13.6970 hc         1 2K7       0.050200
     39 H8          88.2250    -0.0690    13.9670 hc         1 2K7       0.050200
     40 H9          89.9920     0.0510    15.6780 ha         1 2K7       0.117000
     41 H10         90.7970     1.1500    17.7610 ha         1 2K7       0.124000
     42 H11         87.3920     3.3670    14.9600 ha         1 2K7       0.130000
     43 H12         86.8610     6.2560    17.0120 h1         1 2K7       0.043367
     44 H13         87.4460     5.5950    15.4630 h1         1 2K7       0.043367
     45 H14         86.1920     4.7280    16.3850 h1         1 2K7       0.043367
     46 H15         91.1360     4.8510    19.5710 h1         1 2K7       0.036033
     47 H16         91.7940     4.1840    18.0540 h1         1 2K7       0.036033
     48 H17         90.4230     5.3270    18.0090 h1         1 2K7       0.036033
     49 H18         86.7370    -1.0200     8.1260 hn         1 2K7       0.501000
     50 H19         83.0780     0.7120     5.8930 h4         1 2K7       0.024100
     51 H20         83.7380     4.5340     8.0280 hn         1 2K7       0.517000
     52 H21         86.4570     4.3540     8.9440 h1         1 2K7       0.080200
     53 H22         85.3280     5.6810     9.1840 h1         1 2K7       0.080200
     54 H23         84.9200     3.0860    14.8520 hc         1 2K7       0.058700
     55 H24         83.3140     3.1280    14.0980 hc         1 2K7       0.058700
     56 H25         84.3750     1.7470    13.8270 hc         1 2K7       0.058700
     57 O2          89.9770     3.4130    18.7200 os         1 2K7      -0.357100
@<TRIPOS>BOND
     1     1     2 1   
     2     1    30 2   
     3     1    31 1   
     4     2     3 2   
     5     2    32 1   
     6     3    28 1   
     7     3    29 1   
     8     4     7 1   
     9     4    21 1   
    10     4    33 1   
    11     5     6 ar  
    12     5    23 ar  
    13     5    34 1   
    14     6    22 1   
    15     6    25 ar  
    16     7     8 2   
    17     7    22 1   
    18     8     9 1   
    19     8    35 1   
    20     9    10 1   
    21     9    21 2   
    22    10    11 1   
    23    10    36 1   
    24    10    37 1   
    25    11    12 1   
    26    11    38 1   
    27    11    39 1   
    28    12    13 ar  
    29    12    15 ar  
    30    13    14 ar  
    31    13    40 1   
    32    14    18 ar  
    33    14    41 1   
    34    15    19 ar  
    35    15    42 1   
    36    16    20 1   
    37    16    43 1   
    38    16    44 1   
    39    16    45 1   
    40    17    46 1   
    41    17    47 1   
    42    17    48 1   
    43    17    57 1   
    44    18    19 ar  
    45    18    57 1   
    46    19    20 1   
    47    22    49 1   
    48    23    24 ar  
    49    23    50 1   
    50    24    26 ar  
    51    25    26 ar  
    52    26    27 1   
    53    27    28 1   
    54    27    51 1   
    55    28    52 1   
    56    28    53 1   
    57    29    30 1   
    58    31    54 1   
    59    31    55 1   
    60    31    56 1   
@<TRIPOS>SUBSTRUCTURE
     1 2K7         1 TEMP              0 ****  ****    0 ROOT
