@<TRIPOS>MOLECULE
2K8
   23    24     1     0     0
SMALL
abcg2


@<TRIPOS>ATOM
      1 O6A         -3.3380     0.7000     1.0450 o          1 2K8      -0.725000
      2 C6A         -2.5270    -0.1980     0.7410 c          1 2K8       0.705000
      3 O6B         -2.0760    -1.0810     1.4930 o          1 2K8      -0.725000
      4 C6          -2.0900    -0.2550    -0.7480 c6         1 2K8       0.006500
      5 N5          -0.9330    -1.0990    -1.0000 nu         1 2K8      -0.705200
      6 C4A          0.2740    -0.5220    -0.5450 cc         1 2K8      -0.157200
      7 C7          -1.8120     1.1280    -1.3200 c6         1 2K8       0.244800
      8 N8          -0.6200     1.6640    -0.7070 nu         1 2K8      -0.793200
      9 C8A          0.4240     0.8490    -0.4370 cd         1 2K8       0.400600
     10 N1           1.5740     1.4570    -0.0510 nd         1 2K8      -0.737300
     11 C2           2.5870     0.6920     0.2370 cc         1 2K8       0.684800
     12 N2           3.7800     1.2410     0.5660 nv         1 2K8      -1.045200
     13 N3           2.5140    -0.6560     0.1740 ns         1 2K8      -0.434400
     14 C4           1.3650    -1.3510    -0.2100 c          1 2K8       0.580200
     15 O4           1.3810    -2.5850    -0.2310 o          1 2K8      -0.598000
     16 H2          -2.9330    -0.6730    -1.3110 h1         1 2K8       0.050700
     17 H3          -1.0680    -1.9920    -0.5440 hn         1 2K8       0.450000
     18 H4          -1.7050     1.0630    -2.4090 h1         1 2K8       0.034200
     19 H5          -2.6480     1.7910    -1.1120 h1         1 2K8       0.034200
     20 H6          -0.4350     2.6510    -0.7660 hn         1 2K8       0.478000
     21 H7           3.7620     2.2160     0.8120 hn         1 2K8       0.472500
     22 H8           4.4490     0.6900     1.0780 hn         1 2K8       0.472500
     23 H9           3.3250    -1.2160     0.4040 hn         1 2K8       0.306500
@<TRIPOS>BOND
     1     1     2 1   
     2     2     3 1   
     3     2     4 1   
     4     4     5 1   
     5     4     7 1   
     6     4    16 1   
     7     5     6 1   
     8     5    17 1   
     9     6     9 2   
    10     6    14 1   
    11     7     8 1   
    12     7    18 1   
    13     7    19 1   
    14     8     9 1   
    15     8    20 1   
    16     9    10 1   
    17    10    11 2   
    18    11    12 1   
    19    11    13 1   
    20    12    21 1   
    21    12    22 1   
    22    13    14 1   
    23    13    23 1   
    24    14    15 2   
@<TRIPOS>SUBSTRUCTURE
     1 2K8         1 TEMP              0 ****  ****    0 ROOT
