@<TRIPOS>MOLECULE
2K8
   23    24     1     0     0
SMALL
No Charge or Current Charge


@<TRIPOS>ATOM
      1 O6A         -4.2320    -0.2810     0.4360 o          1 2K8      -0.725000
      2 C6A         -3.0240    -0.1700     0.6080 c          1 2K8       0.705000
      3 O6B         -2.5130    -0.5190     1.6670 o          1 2K8      -0.725000
      4 C6          -2.1410    -0.2040    -0.6980 c6         1 2K8       0.006500
      5 N5          -0.9140    -1.0870    -0.6290 nu         1 2K8      -0.705200
      6 C4A          0.3450    -0.5090    -0.3800 cc         1 2K8      -0.157200
      7 C7          -1.7800     1.2630    -1.1280 c6         1 2K8       0.244800
      8 N8          -0.5030     1.7410    -0.5440 nu         1 2K8      -0.793200
      9 C8A          0.5130     0.8700    -0.3420 cd         1 2K8       0.400600
     10 N1           1.7240     1.4840    -0.1050 nd         1 2K8      -0.737300
     11 C2           2.7000     0.6430     0.0960 cc         1 2K8       0.684800
     12 N2           3.8880     1.1720     0.3370 nv         1 2K8      -1.045200
     13 N3           2.6440    -0.6980     0.0950 ns         1 2K8      -0.434400
     14 C4           1.5100    -1.3900    -0.1340 c          1 2K8       0.580200
     15 O4           1.4880    -2.6140    -0.1300 o          1 2K8      -0.598000
     16 H2          -2.8070    -0.6020    -1.4780 h1         1 2K8       0.050700
     17 H3          -1.0160    -2.0850    -0.4120 hn         1 2K8       0.450000
     18 H4          -1.6950     1.2860    -2.2250 h1         1 2K8       0.034200
     19 H5          -2.6050     1.9400    -0.8630 h1         1 2K8       0.034200
     20 H6          -0.2020     2.7010    -0.6930 hn         1 2K8       0.478000
     21 H7           3.8590     2.1670     0.5230 hn         1 2K8       0.472500
     22 H8           4.5310     0.6380     0.9080 hn         1 2K8       0.472500
     23 H9           3.4810    -1.2340     0.2490 hn         1 2K8       0.306500
@<TRIPOS>BOND
     1     1     2 1   
     2     2     3 1   
     3     2     4 1   
     4     4     5 1   
     5     4     7 1   
     6     4    16 1   
     7     5     6 1   
     8     5    17 1   
     9     6     9 2   
    10     6    14 1   
    11     7     8 1   
    12     7    18 1   
    13     7    19 1   
    14     8     9 1   
    15     8    20 1   
    16     9    10 1   
    17    10    11 2   
    18    11    12 1   
    19    11    13 1   
    20    12    21 1   
    21    12    22 1   
    22    13    14 1   
    23    13    23 1   
    24    14    15 2   
@<TRIPOS>SUBSTRUCTURE
     1 2K8         1 TEMP              0 ****  ****    0 ROOT
