@<TRIPOS>MOLECULE
2K9
   34    38     1     0     0
SMALL
No Charge or Current Charge


@<TRIPOS>ATOM
      1 O1          -4.9970    -1.3800    -0.0300 o          1 2K9      -0.435100
      2 C9          -3.8860    -0.8660    -0.0070 c          1 2K9       0.622000
      3 C5          -3.6380     0.6310     0.0480 cc         1 2K9       0.302000
      4 N3          -4.4900     1.6630     0.0620 nd         1 2K9      -0.588000
      5 C10         -3.6990     2.8210     0.0850 cd         1 2K9       0.229900
      6 C6          -2.3500     2.5240     0.0840 cc         1 2K9      -0.192000
      7 N1          -2.3880     1.1650     0.0870 na         1 2K9      -0.043400
      8 C1          -1.3390     0.2750     0.0240 cc         1 2K9      -0.166700
      9 N2          -2.7280    -1.7070    -0.0400 nd         1 2K9      -0.596100
     10 C2          -1.5390    -1.1240    -0.0280 cc         1 2K9       0.575200
     11 C4          -0.2090    -1.7020    -0.0530 ca         1 2K9      -0.164900
     12 C8           0.1790    -3.0470    -0.0880 ca         1 2K9      -0.033000
     13 C12          1.5580    -3.3340    -0.0860 ca         1 2K9      -0.111000
     14 C14          2.5100    -2.2890    -0.0560 ca         1 2K9      -0.083000
     15 C11          2.1210    -0.9210    -0.0320 cp         1 2K9       0.001000
     16 C7           0.7310    -0.6560    -0.0240 ca         1 2K9      -0.053800
     17 C3          -0.0090     0.6190     0.0360 cd         1 2K9      -0.107200
     18 C13          3.1430     0.1680    -0.0140 cp         1 2K9      -0.047000
     19 C16          3.0390     1.2880    -0.8750 ca         1 2K9      -0.097000
     20 C18          4.0070     2.3070    -0.8590 ca         1 2K9      -0.110000
     21 C19          5.1030     2.2210     0.0160 ca         1 2K9      -0.100000
     22 C17          5.2310     1.1140     0.8700 ca         1 2K9      -0.110000
     23 C15          4.2620     0.0960     0.8530 ca         1 2K9      -0.097000
     24 H1          -4.1500     3.8060     0.0920 h4         1 2K9       0.048100
     25 H2          -1.4590     3.1370     0.0880 h4         1 2K9       0.166000
     26 H3          -0.5600    -3.8460    -0.1090 ha         1 2K9       0.142000
     27 H4           1.8930    -4.3690    -0.1100 ha         1 2K9       0.125000
     28 H5           3.5680    -2.5410    -0.0650 ha         1 2K9       0.123000
     29 H6           0.4080     1.6200     0.1030 ha         1 2K9       0.216000
     30 H7           2.2070     1.3590    -1.5710 ha         1 2K9       0.116500
     31 H9           3.9110     3.1600    -1.5270 ha         1 2K9       0.117000
     32 H10          5.8530     3.0090     0.0290 ha         1 2K9       0.117000
     33 H11          6.0800     1.0440     1.5470 ha         1 2K9       0.117000
     34 H13          4.3710    -0.7530     1.5240 ha         1 2K9       0.116500
@<TRIPOS>BOND
     1     1     2 2   
     2     2     3 1   
     3     2     9 1   
     4     3     4 2   
     5     3     7 1   
     6     4     5 1   
     7     5     6 2   
     8     5    24 1   
     9     6     7 1   
    10     6    25 1   
    11     7     8 1   
    12     8    10 1   
    13     8    17 2   
    14     9    10 2   
    15    10    11 1   
    16    11    12 ar  
    17    11    16 ar  
    18    12    13 ar  
    19    12    26 1   
    20    13    14 ar  
    21    13    27 1   
    22    14    15 ar  
    23    14    28 1   
    24    15    16 ar  
    25    15    18 1   
    26    16    17 1   
    27    17    29 1   
    28    18    19 ar  
    29    18    23 ar  
    30    19    20 ar  
    31    19    30 1   
    32    20    21 ar  
    33    20    31 1   
    34    21    22 ar  
    35    21    32 1   
    36    22    23 ar  
    37    22    33 1   
    38    23    34 1   
@<TRIPOS>SUBSTRUCTURE
     1 2K9         1 TEMP              0 ****  ****    0 ROOT
