@<TRIPOS>MOLECULE
2K9
   34    38     1     0     0
SMALL
abcg2


@<TRIPOS>ATOM
      1 O1          -4.8760    -1.3320    -0.0840 o          1 2K9      -0.435100
      2 C9          -3.7820    -0.8230    -0.0480 c          1 2K9       0.622000
      3 C5          -3.6160     0.6360     0.0270 cc         1 2K9       0.302000
      4 N3          -4.5560     1.5460     0.0690 nd         1 2K9      -0.588000
      5 C10         -3.9080     2.7370     0.1320 cd         1 2K9       0.229900
      6 C6          -2.5490     2.5550     0.1280 cc         1 2K9      -0.192000
      7 N1          -2.3770     1.2070     0.0610 na         1 2K9      -0.043400
      8 C1          -1.2550     0.4080     0.0210 cc         1 2K9      -0.166700
      9 N2          -2.6300    -1.6270    -0.0760 nd         1 2K9      -0.596100
     10 C2          -1.4980    -1.0380    -0.0460 cc         1 2K9       0.575200
     11 C4          -0.1690    -1.6600    -0.0610 ca         1 2K9      -0.164900
     12 C8           0.1930    -2.9820    -0.0830 ca         1 2K9      -0.033000
     13 C12          1.5620    -3.2790    -0.0630 ca         1 2K9      -0.111000
     14 C14          2.4980    -2.2650    -0.0330 ca         1 2K9      -0.083000
     15 C11          2.1320    -0.9020    -0.0220 cp         1 2K9       0.001000
     16 C7           0.7780    -0.6220    -0.0240 ca         1 2K9      -0.053800
     17 C3           0.0610     0.6630     0.0440 cd         1 2K9      -0.107200
     18 C13          3.1650     0.1490    -0.0180 cp         1 2K9      -0.047000
     19 C16          3.0860     1.2320    -0.8950 ca         1 2K9      -0.097000
     20 C18          4.0630     2.2170    -0.8900 ca         1 2K9      -0.110000
     21 C19          5.1340     2.1320    -0.0110 ca         1 2K9      -0.100000
     22 C17          5.2270     1.0540     0.8590 ca         1 2K9      -0.110000
     23 C15          4.2510     0.0680     0.8540 ca         1 2K9      -0.097000
     24 H1          -4.4390     3.6740     0.1770 h4         1 2K9       0.048100
     25 H2          -1.7250     3.2470     0.1660 h4         1 2K9       0.166000
     26 H3          -0.5490    -3.7690    -0.1100 ha         1 2K9       0.142000
     27 H4           1.8900    -4.3090    -0.0810 ha         1 2K9       0.125000
     28 H5           3.5510    -2.5200    -0.0380 ha         1 2K9       0.123000
     29 H6           0.5270     1.6350     0.1170 ha         1 2K9       0.216000
     30 H7           2.2720     1.2930    -1.6070 ha         1 2K9       0.116500
     31 H9           3.9900     3.0480    -1.5800 ha         1 2K9       0.117000
     32 H10          5.8960     2.9010    -0.0070 ha         1 2K9       0.117000
     33 H11          6.0590     0.9800     1.5470 ha         1 2K9       0.117000
     34 H13          4.3250    -0.7620     1.5460 ha         1 2K9       0.116500
@<TRIPOS>BOND
     1     1     2 2   
     2     2     3 1   
     3     2     9 1   
     4     3     4 2   
     5     3     7 1   
     6     4     5 1   
     7     5     6 2   
     8     5    24 1   
     9     6     7 1   
    10     6    25 1   
    11     7     8 1   
    12     8    10 1   
    13     8    17 2   
    14     9    10 2   
    15    10    11 1   
    16    11    12 ar  
    17    11    16 ar  
    18    12    13 ar  
    19    12    26 1   
    20    13    14 ar  
    21    13    27 1   
    22    14    15 ar  
    23    14    28 1   
    24    15    16 ar  
    25    15    18 1   
    26    16    17 1   
    27    17    29 1   
    28    18    19 ar  
    29    18    23 ar  
    30    19    20 ar  
    31    19    30 1   
    32    20    21 ar  
    33    20    31 1   
    34    21    22 ar  
    35    21    32 1   
    36    22    23 ar  
    37    22    33 1   
    38    23    34 1   
@<TRIPOS>SUBSTRUCTURE
     1 2K9         1 TEMP              0 ****  ****    0 ROOT
