@<TRIPOS>MOLECULE
2KA
   19    20     1     0     0
SMALL
abcg2


@<TRIPOS>ATOM
      1 O7B        -11.4430    82.1930    23.4700 o          1 2KA      -0.717000
      2 C7A        -10.9270    83.3280    23.3210 c          1 2KA       0.722600
      3 O7A        -11.5440    84.4280    23.3160 o          1 2KA      -0.717000
      4 C7          -9.4380    83.3940    23.0740 cc         1 2KA      -0.082600
      5 C5          -8.3520    82.5630    23.5470 cc         1 2KA      -0.242600
      6 C8          -8.8740    84.2850    22.1970 cd         1 2KA      -0.209000
      7 N9          -7.5170    84.0400    22.0930 na         1 2KA      -0.127000
      8 C4          -7.1810    83.0090    22.9080 cd         1 2KA       0.096400
      9 N3          -5.9160    82.5470    23.0500 nd         1 2KA      -0.713100
     10 C2          -5.7970    81.5700    23.9160 cc         1 2KA       0.681800
     11 N2          -4.5750    81.0430    24.1900 nv         1 2KA      -1.047200
     12 N1          -6.8620    81.0790    24.6160 ns         1 2KA      -0.465400
     13 C6          -8.1960    81.5370    24.5310 c          1 2KA       0.618600
     14 O6          -9.0260    81.0360    25.2910 o          1 2KA      -0.528000
     15 H2          -9.3400    85.0600    21.6130 h4         1 2KA       0.150000
     16 H3          -6.8690    84.5440    21.5080 hn         1 2KA       0.332000
     17 H4          -3.8450    81.2720    23.5330 hn         1 2KA       0.473000
     18 H5          -4.5210    80.1220    24.5950 hn         1 2KA       0.473000
     19 H6          -6.7070    80.3570    25.3070 hn         1 2KA       0.302500
@<TRIPOS>BOND
     1     1     2 1   
     2     2     3 1   
     3     2     4 1   
     4     4     5 1   
     5     4     6 2   
     6     5     8 2   
     7     5    13 1   
     8     6     7 1   
     9     6    15 1   
    10     7     8 1   
    11     7    16 1   
    12     8     9 1   
    13     9    10 2   
    14    10    11 1   
    15    10    12 1   
    16    11    17 1   
    17    11    18 1   
    18    12    13 1   
    19    12    19 1   
    20    13    14 2   
@<TRIPOS>SUBSTRUCTURE
     1 2KA         1 TEMP              0 ****  ****    0 ROOT
