@<TRIPOS>MOLECULE
2KA
   19    20     1     0     0
SMALL
No Charge or Current Charge


@<TRIPOS>ATOM
      1 O7B        -11.2450    82.4460    24.1730 o          1 2KA      -0.717000
      2 C7A        -10.8360    83.2850    23.3880 c          1 2KA       0.722600
      3 O7A        -11.6000    84.0750    22.8480 o          1 2KA      -0.717000
      4 C7          -9.3680    83.3810    23.0510 cc         1 2KA      -0.082600
      5 C5          -8.2510    82.6040    23.5200 cc         1 2KA      -0.242600
      6 C8          -8.8770    84.3210    22.1630 cd         1 2KA      -0.209000
      7 N9          -7.4910    84.1370    22.0780 na         1 2KA      -0.127000
      8 C4          -7.1290    83.0900    22.9090 cd         1 2KA       0.096400
      9 N3          -5.8570    82.5790    23.1230 nd         1 2KA      -0.713100
     10 C2          -5.8470    81.5800    23.9720 cc         1 2KA       0.681800
     11 N2          -4.6720    81.0290    24.2260 nv         1 2KA      -1.047200
     12 N1          -6.8990    81.0410    24.6160 ns         1 2KA      -0.465400
     13 C6          -8.1730    81.4760    24.4720 c          1 2KA       0.618600
     14 O6          -9.0840    80.9500    25.0870 o          1 2KA      -0.528000
     15 H2          -9.3990    85.0870    21.6000 h4         1 2KA       0.150000
     16 H3          -6.8480    84.6750    21.5080 hn         1 2KA       0.332000
     17 H4          -3.9400    81.3150    23.5870 hn         1 2KA       0.473000
     18 H5          -4.6640    80.0520    24.4920 hn         1 2KA       0.473000
     19 H6          -6.7510    80.2850    25.2630 hn         1 2KA       0.302500
@<TRIPOS>BOND
     1     1     2 1   
     2     2     3 1   
     3     2     4 1   
     4     4     5 1   
     5     4     6 2   
     6     5     8 2   
     7     5    13 1   
     8     6     7 1   
     9     6    15 1   
    10     7     8 1   
    11     7    16 1   
    12     8     9 1   
    13     9    10 2   
    14    10    11 1   
    15    10    12 1   
    16    11    17 1   
    17    11    18 1   
    18    12    13 1   
    19    12    19 1   
    20    13    14 2   
@<TRIPOS>SUBSTRUCTURE
     1 2KA         1 TEMP              0 ****  ****    0 ROOT
