@<TRIPOS>MOLECULE
2KB
   85    87     1     0     0
SMALL
bcc


@<TRIPOS>ATOM
      1 C4          -3.0150     2.8580    -1.1180 c6         1 2KB      -0.063400
      2 C5          -2.6840     1.5140    -0.4640 c5         1 2KB      -0.033000
      3 C6          -1.7890     1.8080     0.7690 c5         1 2KB      -0.038500
      4 C7          -1.7560     0.4920     1.5290 c5         1 2KB      -0.070400
      5 C8          -3.1710    -0.0790     1.3180 c5         1 2KB      -0.077400
      6 C13          4.4410     2.8370     0.1360 c6         1 2KB      -0.074200
      7 C15          5.6620     0.6570     0.3170 c6         1 2KB       0.169100
      8 C17          3.4570     0.9800     1.4450 ce         1 2KB      -0.127200
      9 C20         -1.9620     0.5900    -1.4460 c3         1 2KB      -0.079100
     10 C21         -4.8500    -0.0360    -0.6110 c3         1 2KB      -0.045700
     11 C22         -5.4500     0.7370    -1.7820 c3         1 2KB      -0.087100
     12 C26         -8.9730    -3.0810     0.1520 c3         1 2KB       0.159800
     13 C28         -8.3600    -4.3250    -0.4790 c3         1 2KB      -0.100100
     14 N35         10.6350    -4.2480    -1.1830 n1         1 2KB      -0.372800
     15 C34          9.9430    -3.6200    -0.5110 c1         1 2KB       0.210700
     16 C33          9.0610    -2.8220     0.3250 c3         1 2KB      -0.018300
     17 C32          8.1760    -1.8900    -0.5040 c3         1 2KB      -0.075400
     18 O19          6.4900    -0.2300    -0.3930 os         1 2KB      -0.382600
     19 C14          5.3710     1.8540    -0.5820 c6         1 2KB       0.155100
     20 O30          6.6060     2.4560    -0.8940 oh         1 2KB      -0.588800
     21 C16          4.3710    -0.0230     0.7820 c6         1 2KB       0.158300
     22 O18          3.7510    -0.5820    -0.3540 oh         1 2KB      -0.573800
     23 C29          2.9790     0.7810     2.6720 c2         1 2KB      -0.192000
     24 C12          3.1850     2.1750     0.6260 ce         1 2KB      -0.074200
     25 C11          1.9630     2.6310     0.3070 cf         1 2KB      -0.102000
     26 C3          -0.5220     2.5140     0.4000 c2         1 2KB      -0.071400
     27 C2          -0.8060     3.8200    -0.2910 c6         1 2KB      -0.043200
     28 C9          -3.8620     0.7880     0.2290 c5         1 2KB      -0.053700
     29 C1          -1.7530     3.6390    -1.4830 c6         1 2KB      -0.072400
     30 C23         -5.9600    -0.5700     0.3060 c3         1 2KB      -0.078400
     31 C25         -7.8950    -2.1340     0.6990 c3         1 2KB      -0.103400
     32 O36         -9.7210    -2.4440    -0.8790 oh         1 2KB      -0.597800
     33 C27         -9.9080    -3.4890     1.2910 c3         1 2KB      -0.100100
     34 H1          -3.6300     2.7330    -2.0110 hc         1 2KB       0.041700
     35 H2          -3.6090     3.4520    -0.4130 hc         1 2KB       0.041700
     36 H3          -2.3670     2.5180     1.3820 hc         1 2KB       0.053700
     37 H4          -1.0070    -0.1840     1.1130 hc         1 2KB       0.043200
     38 H5          -1.5080     0.6300     2.5820 hc         1 2KB       0.043200
     39 H6          -3.1230    -1.1220     0.9950 hc         1 2KB       0.041200
     40 H7          -3.7440    -0.0730     2.2460 hc         1 2KB       0.041200
     41 H9           4.9890     3.2560     0.9900 hc         1 2KB       0.053700
     42 H10          4.2040     3.6700    -0.5320 hc         1 2KB       0.053700
     43 H11          6.1790     1.0260     1.2180 h1         1 2KB       0.047700
     44 H12         -0.9980     1.0010    -1.7480 hc         1 2KB       0.035367
     45 H13         -1.7640    -0.3940    -1.0170 hc         1 2KB       0.035367
     46 H14         -2.5480     0.4370    -2.3540 hc         1 2KB       0.035367
     47 H15         -4.3120    -0.9040    -1.0150 hc         1 2KB       0.047700
     48 H16         -5.9190     1.6650    -1.4450 hc         1 2KB       0.034033
     49 H17         -4.7030     0.9930    -2.5310 hc         1 2KB       0.034033
     50 H18         -6.2130     0.1490    -2.2930 hc         1 2KB       0.034033
     51 H21         -7.7230    -4.0800    -1.3300 hc         1 2KB       0.041367
     52 H22         -7.7530    -4.8610     0.2510 hc         1 2KB       0.041367
     53 H23         -9.1390    -5.0060    -0.8290 hc         1 2KB       0.041367
     54 H24          8.4560    -3.5070     0.9230 hc         1 2KB       0.068200
     55 H25          9.6840    -2.2550     1.0210 hc         1 2KB       0.068200
     56 H26          8.8010    -1.2230    -1.1000 hc         1 2KB       0.068200
     57 H27          7.5660    -2.4790    -1.1920 hc         1 2KB       0.068200
     58 H28          6.6640    -1.7500     1.0160 h1         1 2KB       0.018200
     59 H29          7.8910    -0.4840     1.1050 h1         1 2KB       0.018200
     60 H30          4.8680     1.5020    -1.4930 h1         1 2KB       0.064700
     61 H31          6.4370     3.1870    -1.4970 ho         1 2KB       0.403000
     62 H32          4.6220    -0.8020     1.5160 h1         1 2KB       0.033700
     63 H33          2.9160    -0.9730    -0.0750 ho         1 2KB       0.403000
     64 H34          3.2340    -0.1070     3.2360 ha         1 2KB       0.119500
     65 H35          2.3300     1.5000     3.1570 ha         1 2KB       0.119500
     66 H36          1.9280     3.5220    -0.3120 ha         1 2KB       0.121000
     67 H37         -1.2900     4.4850     0.4340 hc         1 2KB       0.046200
     68 H38          0.1020     4.3280    -0.6170 hc         1 2KB       0.046200
     69 H39         -4.4470     1.5710     0.7340 hc         1 2KB       0.043700
     70 H40         -1.2210     3.1350    -2.2940 hc         1 2KB       0.041700
     71 H41         -2.0320     4.6220    -1.8690 hc         1 2KB       0.041700
     72 H42         -5.5090    -1.0400     1.1850 hc         1 2KB       0.035200
     73 H43         -6.5390     0.2810     0.6880 hc         1 2KB       0.035200
     74 H44         -7.3440    -2.6530     1.4910 hc         1 2KB       0.038700
     75 H45         -8.3970    -1.2920     1.1920 hc         1 2KB       0.038700
     76 H46        -10.1230    -1.6520    -0.5080 ho         1 2KB       0.399000
     77 H47        -10.7040    -4.1410     0.9280 hc         1 2KB       0.041367
     78 H48         -9.3680    -4.0240     2.0730 hc         1 2KB       0.041367
     79 H49        -10.3710    -2.6120     1.7510 hc         1 2KB       0.041367
     80 C10          0.6980     2.0230     0.6700 cf         1 2KB      -0.147000
     81 C24         -6.9090    -1.5840    -0.3260 c3         1 2KB      -0.071400
     82 C31          7.2790    -1.0730     0.4070 c3         1 2KB       0.142400
     83 H8           0.7590     1.0800     1.2010 ha         1 2KB       0.124000
     84 H19         -7.4660    -1.1320    -1.1500 hc         1 2KB       0.046700
     85 H20         -6.3220    -2.4000    -0.7600 hc         1 2KB       0.046700
@<TRIPOS>BOND
     1     1     2 1   
     2     1    29 1   
     3     1    34 1   
     4     1    35 1   
     5     2     3 1   
     6     2     9 1   
     7     2    28 1   
     8     3     4 1   
     9     3    26 1   
    10     3    36 1   
    11     4     5 1   
    12     4    37 1   
    13     4    38 1   
    14     5    28 1   
    15     5    39 1   
    16     5    40 1   
    17     6    19 1   
    18     6    24 1   
    19     6    41 1   
    20     6    42 1   
    21     7    18 1   
    22     7    19 1   
    23     7    21 1   
    24     7    43 1   
    25     8    21 1   
    26     8    23 2   
    27     8    24 1   
    28     9    44 1   
    29     9    45 1   
    30     9    46 1   
    31    10    11 1   
    32    10    28 1   
    33    10    30 1   
    34    10    47 1   
    35    11    48 1   
    36    11    49 1   
    37    11    50 1   
    38    12    13 1   
    39    12    31 1   
    40    12    32 1   
    41    12    33 1   
    42    13    51 1   
    43    13    52 1   
    44    13    53 1   
    45    14    15 3   
    46    15    16 1   
    47    16    17 1   
    48    16    54 1   
    49    16    55 1   
    50    17    56 1   
    51    17    57 1   
    52    17    82 1   
    53    18    82 1   
    54    19    20 1   
    55    19    60 1   
    56    20    61 1   
    57    21    22 1   
    58    21    62 1   
    59    22    63 1   
    60    23    64 1   
    61    23    65 1   
    62    24    25 2   
    63    25    66 1   
    64    25    80 1   
    65    26    27 1   
    66    26    80 2   
    67    27    29 1   
    68    27    67 1   
    69    27    68 1   
    70    28    69 1   
    71    29    70 1   
    72    29    71 1   
    73    30    72 1   
    74    30    73 1   
    75    30    81 1   
    76    31    74 1   
    77    31    75 1   
    78    31    81 1   
    79    32    76 1   
    80    33    77 1   
    81    33    78 1   
    82    33    79 1   
    83    58    82 1   
    84    59    82 1   
    85    80    83 1   
    86    81    84 1   
    87    81    85 1   
@<TRIPOS>SUBSTRUCTURE
     1 2KB         1 TEMP              0 ****  ****    0 ROOT
