@<TRIPOS>MOLECULE
2KB
   85    87     1     0     0
SMALL
No Charge or Current Charge


@<TRIPOS>ATOM
      1 C4          -3.0980     2.9660    -1.0950 c6         1 2KB      -0.063400
      2 C5          -2.7260     1.5510    -0.5370 c5         1 2KB      -0.033000
      3 C6          -1.7770     1.7800     0.7150 c5         1 2KB      -0.038500
      4 C7          -1.6050     0.3320     1.2360 c5         1 2KB      -0.070400
      5 C8          -3.0580    -0.2290     1.1340 c5         1 2KB      -0.077400
      6 C13          4.5370     2.9130    -0.0400 c6         1 2KB      -0.074200
      7 C15          5.8930     0.7730     0.3390 c6         1 2KB       0.192300
      8 C17          3.5550     1.0640     1.3490 ce         1 2KB      -0.127200
      9 C20         -2.1520     0.6800    -1.7360 c3         1 2KB      -0.079100
     10 C21         -5.0530     0.1120    -0.5480 c3         1 2KB      -0.045700
     11 C22         -5.7830     1.0700    -1.5260 c3         1 2KB      -0.087100
     12 C26         -9.0870    -3.2020     0.2240 c3         1 2KB       0.183000
     13 C28         -8.5440    -4.2690    -0.7570 c3         1 2KB      -0.100100
     14 N35         10.9200    -4.3960    -0.7680 n1         1 2KB      -0.462000
     15 C34         10.1250    -3.8210    -0.1380 c1         1 2KB       0.299900
     16 C33          9.1190    -3.0770     0.6290 c3         1 2KB      -0.018300
     17 C32          8.4550    -1.9430    -0.1890 c3         1 2KB      -0.075400
     18 O19          6.8620    -0.1450    -0.2420 os         1 2KB      -0.429000
     19 C14          5.5440     1.9180    -0.6690 c6         1 2KB       0.178300
     20 O30          6.7220     2.6330    -1.0990 oh         1 2KB      -0.711000
     21 C16          4.5890     0.0510     0.8350 c6         1 2KB       0.181500
     22 O18          3.9750    -0.7530    -0.1850 oh         1 2KB      -0.696000
     23 C29          2.9870     0.9410     2.5690 c2         1 2KB      -0.292000
     24 C12          3.2730     2.1900     0.4390 ce         1 2KB      -0.074200
     25 C11          2.0310     2.6290     0.0760 cf         1 2KB      -0.152000
     26 C3          -0.4980     2.5060     0.2610 c2         1 2KB      -0.071400
     27 C2          -0.7970     3.8750    -0.3660 c6         1 2KB      -0.043200
     28 C9          -3.8750     0.7930     0.2470 c5         1 2KB      -0.053700
     29 C1          -1.8410     3.7800    -1.5080 c6         1 2KB      -0.072400
     30 C23         -6.0680    -0.5750     0.4230 c3         1 2KB      -0.078400
     31 C25         -7.9580    -2.2930     0.7970 c3         1 2KB      -0.103400
     32 O36        -10.0200    -2.3870    -0.4860 oh         1 2KB      -0.660000
     33 C27         -9.8540    -3.8870     1.3790 c3         1 2KB      -0.100100
     34 H1          -3.7590     2.8990    -1.9650 hc         1 2KB       0.041700
     35 H2          -3.6550     3.5290    -0.3330 hc         1 2KB       0.041700
     36 H3          -2.2700     2.3930     1.4820 hc         1 2KB       0.053700
     37 H4          -0.9240    -0.2610     0.6160 hc         1 2KB       0.043200
     38 H5          -1.2190     0.3020     2.2610 hc         1 2KB       0.043200
     39 H6          -3.0450    -1.2340     0.6960 hc         1 2KB       0.041200
     40 H7          -3.5100    -0.3300     2.1280 hc         1 2KB       0.041200
     41 H9           5.0030     3.4280     0.8120 hc         1 2KB       0.053700
     42 H10          4.2820     3.6930    -0.7700 hc         1 2KB       0.053700
     43 H11          6.3640     1.2410     1.2160 h1         1 2KB       0.047700
     44 H12         -1.1740     1.0430    -2.0700 hc         1 2KB       0.035367
     45 H13         -2.0220    -0.3730    -1.4630 hc         1 2KB       0.035367
     46 H14         -2.8230     0.7010    -2.6020 hc         1 2KB       0.035367
     47 H15         -4.6220    -0.6880    -1.1630 hc         1 2KB       0.047700
     48 H16         -6.0750     2.0000    -1.0220 hc         1 2KB       0.034033
     49 H17         -5.1450     1.3110    -2.3800 hc         1 2KB       0.034033
     50 H18         -6.6830     0.6190    -1.9530 hc         1 2KB       0.034033
     51 H21         -8.1110    -3.8070    -1.6520 hc         1 2KB       0.041367
     52 H22         -7.7690    -4.8790    -0.2770 hc         1 2KB       0.041367
     53 H23         -9.3470    -4.9390    -1.0870 hc         1 2KB       0.041367
     54 H24          8.3530    -3.7810     0.9750 hc         1 2KB       0.068200
     55 H25          9.6000    -2.6590     1.5210 hc         1 2KB       0.068200
     56 H26          9.2260    -1.2430    -0.5350 hc         1 2KB       0.068200
     57 H27          7.9780    -2.3670    -1.0810 hc         1 2KB       0.068200
     58 H28          6.6150    -1.8540     0.9500 h1         1 2KB       0.018200
     59 H29          7.8700    -0.7140     1.5030 h1         1 2KB       0.018200
     60 H30          5.0560     1.4510    -1.5390 h1         1 2KB       0.064700
     61 H31          6.4590     3.1700    -1.8810 ho         1 2KB       0.502000
     62 H32          4.8700    -0.5960     1.6790 h1         1 2KB       0.033700
     63 H33          3.0500    -0.8980     0.1120 ho         1 2KB       0.502000
     64 H34          3.2210     0.1100     3.2350 ha         1 2KB       0.169500
     65 H35          2.2740     1.6760     2.9430 ha         1 2KB       0.169500
     66 H36          1.9940     3.4980    -0.5790 ha         1 2KB       0.171000
     67 H37         -1.1910     4.5360     0.4190 hc         1 2KB       0.046200
     68 H38          0.0970     4.3770    -0.7470 hc         1 2KB       0.046200
     69 H39         -4.3720     1.5100     0.9130 hc         1 2KB       0.043700
     70 H40         -1.3740     3.3290    -2.3940 hc         1 2KB       0.041700
     71 H41         -2.1420     4.7920    -1.8130 hc         1 2KB       0.041700
     72 H42         -5.5200    -1.1870     1.1470 hc         1 2KB       0.035200
     73 H43         -6.5850     0.1980     1.0050 hc         1 2KB       0.035200
     74 H44         -7.2750    -2.9170     1.3890 hc         1 2KB       0.038700
     75 H45         -8.4010    -1.5780     1.5010 hc         1 2KB       0.038700
     76 H46        -10.2910    -1.6690     0.1250 ho         1 2KB       0.438000
     77 H47        -10.6820    -4.4960     0.9950 hc         1 2KB       0.041367
     78 H48         -9.1880    -4.5450     1.9500 hc         1 2KB       0.041367
     79 H49        -10.2720    -3.1450     2.0710 hc         1 2KB       0.041367
     80 C10          0.7580     2.0120     0.4590 cf         1 2KB      -0.197000
     81 C24         -7.1200    -1.5000    -0.2420 c3         1 2KB      -0.071400
     82 C31          7.4000    -1.1630     0.6180 c3         1 2KB       0.165600
     83 H8           0.8610     1.0500     0.9550 ha         1 2KB       0.174000
     84 H19         -7.8000    -0.9080    -0.8630 hc         1 2KB       0.046700
     85 H20         -6.6000    -2.2010    -0.9060 hc         1 2KB       0.046700
@<TRIPOS>BOND
     1     1     2 1   
     2     1    29 1   
     3     1    34 1   
     4     1    35 1   
     5     2     3 1   
     6     2     9 1   
     7     2    28 1   
     8     3     4 1   
     9     3    26 1   
    10     3    36 1   
    11     4     5 1   
    12     4    37 1   
    13     4    38 1   
    14     5    28 1   
    15     5    39 1   
    16     5    40 1   
    17     6    19 1   
    18     6    24 1   
    19     6    41 1   
    20     6    42 1   
    21     7    18 1   
    22     7    19 1   
    23     7    21 1   
    24     7    43 1   
    25     8    21 1   
    26     8    23 2   
    27     8    24 1   
    28     9    44 1   
    29     9    45 1   
    30     9    46 1   
    31    10    11 1   
    32    10    28 1   
    33    10    30 1   
    34    10    47 1   
    35    11    48 1   
    36    11    49 1   
    37    11    50 1   
    38    12    13 1   
    39    12    31 1   
    40    12    32 1   
    41    12    33 1   
    42    13    51 1   
    43    13    52 1   
    44    13    53 1   
    45    14    15 3   
    46    15    16 1   
    47    16    17 1   
    48    16    54 1   
    49    16    55 1   
    50    17    56 1   
    51    17    57 1   
    52    17    82 1   
    53    18    82 1   
    54    19    20 1   
    55    19    60 1   
    56    20    61 1   
    57    21    22 1   
    58    21    62 1   
    59    22    63 1   
    60    23    64 1   
    61    23    65 1   
    62    24    25 2   
    63    25    66 1   
    64    25    80 1   
    65    26    27 1   
    66    26    80 2   
    67    27    29 1   
    68    27    67 1   
    69    27    68 1   
    70    28    69 1   
    71    29    70 1   
    72    29    71 1   
    73    30    72 1   
    74    30    73 1   
    75    30    81 1   
    76    31    74 1   
    77    31    75 1   
    78    31    81 1   
    79    32    76 1   
    80    33    77 1   
    81    33    78 1   
    82    33    79 1   
    83    58    82 1   
    84    59    82 1   
    85    80    83 1   
    86    81    84 1   
    87    81    85 1   
@<TRIPOS>SUBSTRUCTURE
     1 2KB         1 TEMP              0 ****  ****    0 ROOT
