@<TRIPOS>MOLECULE
2KC
   50    53     1     0     0
SMALL
abcg2


@<TRIPOS>ATOM
      1 N1           2.4510     0.7260    -0.9170 n3         1 2KC      -0.736600
      2 C2           2.1850     2.0520    -1.4680 c6         1 2KC       0.159300
      3 C3           1.8570     3.0640    -0.3810 c6         1 2KC      -0.073900
      4 C4           2.9380     3.1540     0.6990 c6         1 2KC       0.172200
      5 C5           3.2130     1.7310     1.1920 c6         1 2KC      -0.073900
      6 C6           3.5330     0.7680     0.0630 c6         1 2KC       0.159300
      7 N7           2.0600    -4.6600     0.1130 nc         1 2KC      -0.300800
      8 C8           0.9700    -4.3400     0.7320 cd         1 2KC       0.134900
      9 N9           0.3540    -3.1420     0.7810 nd         1 2KC      -0.297000
     10 C10          0.9020    -2.1470     0.1180 cc         1 2KC       0.447900
     11 C11          2.0780    -2.3670    -0.6640 cc         1 2KC      -0.244000
     12 C12          2.8950    -1.6310    -1.5190 cd         1 2KC      -0.114200
     13 C13          3.9170    -2.5020    -1.9270 cd         1 2KC      -0.246000
     14 C14          3.7110    -3.7380    -1.3450 cc         1 2KC      -0.173100
     15 C16          2.7330    -0.2200    -1.9910 c3         1 2KC       0.225000
     16 N17          2.6030    -3.6460    -0.5880 na         1 2KC       0.286900
     17 C18         -0.7910    -0.4380     0.7140 ca         1 2KC       0.344000
     18 C19         -1.5500    -1.1350     1.6480 ca         1 2KC      -0.158000
     19 C20         -2.7070    -0.5550     2.1660 ca         1 2KC       0.165100
     20 C21         -3.1180     0.7160     1.7740 ca         1 2KC      -0.214000
     21 C22         -2.3410     1.3860     0.8420 ca         1 2KC       0.048100
     22 C23         -1.1980     0.8380     0.2980 ca         1 2KC      -0.174000
     23 O24         -3.3960    -1.2800     3.0630 oh         1 2KC      -0.528100
     24 C25          4.2130     3.7960     0.1410 c3         1 2KC      -0.126100
     25 N26          2.3930     3.9200     1.8180 n8         1 2KC      -0.986200
     26 BR27        -2.8740     3.1100     0.2850 br         1 2KC      -0.103100
     27 H28          3.0440     2.4020    -2.0600 h1         1 2KC       0.040950
     28 H29          1.3450     1.9740    -2.1620 h1         1 2KC       0.040950
     29 H30          1.7000     4.0410    -0.8480 hc         1 2KC       0.058450
     30 H31          0.9140     2.7940     0.1040 hc         1 2KC       0.058450
     31 H32          4.0430     1.7300     1.9050 hc         1 2KC       0.058450
     32 H33          2.3310     1.3700     1.7290 hc         1 2KC       0.058450
     33 H34          4.4820     1.0430    -0.4230 h1         1 2KC       0.040950
     34 H35          3.6770    -0.2320     0.4740 h1         1 2KC       0.040950
     35 H36          0.5060    -5.1420     1.2910 h5         1 2KC       0.056100
     36 H37          4.7300    -2.2540    -2.5920 ha         1 2KC       0.204000
     37 H38          4.2610    -4.6610    -1.4180 h4         1 2KC       0.236000
     38 H39          1.0100    -0.1730    -0.2630 hn         1 2KC       0.562000
     39 H40          3.6400     0.0650    -2.5420 h1         1 2KC       0.046700
     40 H41          1.9060    -0.1600    -2.7060 h1         1 2KC       0.046700
     41 H42         -1.2570    -2.1190     1.9740 ha         1 2KC       0.170000
     42 H43         -4.0150     1.1610     2.1870 ha         1 2KC       0.130000
     43 H44         -0.6290     1.3700    -0.4520 ha         1 2KC       0.132000
     44 H45         -4.1730    -0.7990     3.3670 ho         1 2KC       0.467000
     45 H46          4.0140     4.8210    -0.1790 hc         1 2KC       0.037033
     46 H47          4.6240     3.2630    -0.7180 hc         1 2KC       0.037033
     47 H48          4.9920     3.8300     0.9060 hc         1 2KC       0.037033
     48 H49          2.2070     4.8700     1.5120 hn         1 2KC       0.393000
     49 H50          3.1010     4.0090     2.5390 hn         1 2KC       0.393000
     50 N15          0.3890    -0.9030     0.1410 nu         1 2KC      -0.938900
@<TRIPOS>BOND
     1     1     2 1   
     2     1     6 1   
     3     1    15 1   
     4     2     3 1   
     5     2    27 1   
     6     2    28 1   
     7     3     4 1   
     8     3    29 1   
     9     3    30 1   
    10     4     5 1   
    11     4    24 1   
    12     4    25 1   
    13     5     6 1   
    14     5    31 1   
    15     5    32 1   
    16     6    33 1   
    17     6    34 1   
    18     7     8 2   
    19     7    16 1   
    20     8     9 1   
    21     8    35 1   
    22     9    10 2   
    23    10    11 1   
    24    10    50 1   
    25    11    12 2   
    26    11    16 1   
    27    12    13 1   
    28    12    15 1   
    29    13    14 2   
    30    13    36 1   
    31    14    16 1   
    32    14    37 1   
    33    15    39 1   
    34    15    40 1   
    35    17    18 ar  
    36    17    22 ar  
    37    17    50 1   
    38    18    19 ar  
    39    18    41 1   
    40    19    20 ar  
    41    19    23 1   
    42    20    21 ar  
    43    20    42 1   
    44    21    22 ar  
    45    21    26 1   
    46    22    43 1   
    47    23    44 1   
    48    24    45 1   
    49    24    46 1   
    50    24    47 1   
    51    25    48 1   
    52    25    49 1   
    53    38    50 1   
@<TRIPOS>SUBSTRUCTURE
     1 2KC         1 TEMP              0 ****  ****    0 ROOT
