@<TRIPOS>MOLECULE
2KC
   50    53     1     0     0
SMALL
No Charge or Current Charge


@<TRIPOS>ATOM
      1 N1           2.4120     0.7110    -0.8740 n3         1 2KC      -0.736600
      2 C2           2.1110     2.0870    -1.3580 c6         1 2KC       0.159300
      3 C3           1.7770     3.0420    -0.1840 c6         1 2KC      -0.073900
      4 C4           2.9150     3.0830     0.8720 c6         1 2KC       0.172200
      5 C5           3.2340     1.6290     1.3130 c6         1 2KC      -0.073900
      6 C6           3.5380     0.7100     0.1040 c6         1 2KC       0.159300
      7 N7           2.1510    -4.7870    -0.0310 nc         1 2KC      -0.300800
      8 C8           1.0470    -4.5070     0.6940 cd         1 2KC       0.134900
      9 N9           0.4030    -3.2590     0.8070 nd         1 2KC      -0.297000
     10 C10          0.9590    -2.2870     0.1120 cc         1 2KC       0.447900
     11 C11          2.0910    -2.4840    -0.7010 cc         1 2KC      -0.244000
     12 C12          2.8210    -1.6860    -1.5640 cd         1 2KC      -0.114200
     13 C13          3.8610    -2.5270    -2.0700 cd         1 2KC      -0.246000
     14 C14          3.7590    -3.7990    -1.5460 cc         1 2KC      -0.173100
     15 C16          2.6130    -0.2420    -1.9900 c3         1 2KC       0.225000
     16 N17          2.6510    -3.7170    -0.7250 na         1 2KC       0.286900
     17 C18         -0.7040    -0.4310     0.6500 ca         1 2KC       0.344000
     18 C19         -1.3550    -0.8820     1.8110 ca         1 2KC      -0.158000
     19 C20         -2.5100    -0.2340     2.2700 ca         1 2KC       0.165100
     20 C21         -3.0190     0.8740     1.5780 ca         1 2KC      -0.214000
     21 C22         -2.3640     1.3330     0.4260 ca         1 2KC       0.048100
     22 C23         -1.2110     0.6810    -0.0350 ca         1 2KC      -0.174000
     23 O24         -3.1320    -0.6810     3.3970 oh         1 2KC      -0.528100
     24 C25          4.1790     3.8140     0.3300 c3         1 2KC      -0.126100
     25 N26          2.4600     3.8510     2.0450 n8         1 2KC      -0.986200
     26 Br27        -3.0380     2.8520    -0.5180 br         1 2KC      -0.103100
     27 H28          2.9620     2.4870    -1.9280 h1         1 2KC       0.040950
     28 H29          1.2520     2.0670    -2.0460 h1         1 2KC       0.040950
     29 H30          1.5800     4.0480    -0.5780 hc         1 2KC       0.058450
     30 H31          0.8430     2.7070     0.2870 hc         1 2KC       0.058450
     31 H32          4.0850     1.6160     2.0060 hc         1 2KC       0.058450
     32 H33          2.3810     1.2100     1.8640 hc         1 2KC       0.058450
     33 H34          4.4700     1.0310    -0.3820 h1         1 2KC       0.040950
     34 H35          3.7150    -0.3060     0.4870 h1         1 2KC       0.040950
     35 H36          0.5970    -5.3130     1.2610 h5         1 2KC       0.056100
     36 H37          4.6200    -2.2130    -2.7850 ha         1 2KC       0.204000
     37 H38          4.3340    -4.7070    -1.6840 h4         1 2KC       0.236000
     38 H39          1.0950    -0.3690    -0.3160 hn         1 2KC       0.562000
     39 H40          3.4790     0.0690    -2.5900 h1         1 2KC       0.046700
     40 H41          1.7410    -0.2170    -2.6570 h1         1 2KC       0.046700
     41 H42         -0.9620    -1.7210     2.3720 ha         1 2KC       0.170000
     42 H43         -3.9130     1.3850     1.9290 ha         1 2KC       0.130000
     43 H44         -0.7130     1.0400    -0.9300 ha         1 2KC       0.132000
     44 H45         -3.9130    -0.1120     3.5660 ho         1 2KC       0.467000
     45 H46          3.9510     4.8450     0.0360 hc         1 2KC       0.037033
     46 H47          4.6010     3.3160    -0.5500 hc         1 2KC       0.037033
     47 H48          4.9730     3.8540     1.0870 hc         1 2KC       0.037033
     48 H49          1.5340     4.2400     1.8430 hn         1 2KC       0.393000
     49 H50          3.0550     4.6800     2.1390 hn         1 2KC       0.393000
     50 N15          0.4600    -1.0210     0.1680 nu         1 2KC      -0.938900
@<TRIPOS>BOND
     1     1     2 1   
     2     1     6 1   
     3     1    15 1   
     4     2     3 1   
     5     2    27 1   
     6     2    28 1   
     7     3     4 1   
     8     3    29 1   
     9     3    30 1   
    10     4     5 1   
    11     4    24 1   
    12     4    25 1   
    13     5     6 1   
    14     5    31 1   
    15     5    32 1   
    16     6    33 1   
    17     6    34 1   
    18     7     8 2   
    19     7    16 1   
    20     8     9 1   
    21     8    35 1   
    22     9    10 2   
    23    10    11 1   
    24    10    50 1   
    25    11    12 2   
    26    11    16 1   
    27    12    13 1   
    28    12    15 1   
    29    13    14 2   
    30    13    36 1   
    31    14    16 1   
    32    14    37 1   
    33    15    39 1   
    34    15    40 1   
    35    17    18 ar  
    36    17    22 ar  
    37    17    50 1   
    38    18    19 ar  
    39    18    41 1   
    40    19    20 ar  
    41    19    23 1   
    42    20    21 ar  
    43    20    42 1   
    44    21    22 ar  
    45    21    26 1   
    46    22    43 1   
    47    23    44 1   
    48    24    45 1   
    49    24    46 1   
    50    24    47 1   
    51    25    48 1   
    52    25    49 1   
    53    38    50 1   
@<TRIPOS>SUBSTRUCTURE
     1 2KC         1 TEMP              0 ****  ****    0 ROOT
