@<TRIPOS>MOLECULE
2KD
   56    59     1     0     0
SMALL
No Charge or Current Charge


@<TRIPOS>ATOM
      1 N01         -0.4520    -0.4770    -0.6720 nb         1 2KD      -0.718000
      2 C02         -1.1660    -0.8670     0.4260 ca         1 2KD       0.312500
      3 C03         -0.5260    -1.1620     1.6440 ca         1 2KD      -0.122000
      4 C04          0.8750    -1.0650     1.7560 ca         1 2KD      -0.079600
      5 C05          1.6040    -0.6440     0.6120 ca         1 2KD      -0.055000
      6 C06          0.8940    -0.3650    -0.5850 ca         1 2KD       0.263000
      7 C07          3.0100    -0.4850     0.6420 ca         1 2KD      -0.021000
      8 C08          3.7340    -0.0660    -0.5020 cp         1 2KD      -0.096000
      9 C09          3.0060     0.1920    -1.6860 ca         1 2KD      -0.098000
     10 C10          1.6110     0.0460    -1.7200 ca         1 2KD      -0.108000
     11 C11         -2.6940    -0.9820     0.3190 c          1 2KD       0.510600
     12 C12          1.5250    -1.4070     3.0760 c          1 2KD       0.720600
     13 C13          5.2210     0.0980    -0.4610 cp         1 2KD       0.009000
     14 O14         -3.4130    -1.3400     1.2470 o          1 2KD      -0.605100
     15 N15         -3.2200    -0.6590    -0.9180 ns         1 2KD      -0.488900
     16 C16         -4.6610    -0.5680    -1.2470 c3         1 2KD       0.074700
     17 C17         -5.1900     0.8850    -1.1300 c3         1 2KD      -0.031100
     18 C18         -4.9190     1.5230     0.2290 ca         1 2KD      -0.119300
     19 C19         -4.9450    -1.1580    -2.6540 c          1 2KD       0.570100
     20 O20         -4.0840    -1.3660    -3.5010 o          1 2KD      -0.459000
     21 O21         -6.2740    -1.4630    -2.8170 os         1 2KD      -0.451100
     22 C22         -6.6890    -2.0350    -4.0720 c3         1 2KD       0.151900
     23 O23          2.3660    -2.2950     3.0980 o          1 2KD      -0.698000
     24 O24          1.1230    -0.8320     4.0770 o          1 2KD      -0.698000
     25 C25          6.0240    -0.2380    -1.5800 ca         1 2KD      -0.106000
     26 C26          7.4190    -0.0840    -1.5430 ca         1 2KD       0.115000
     27 C27          8.0450     0.4090    -0.3880 ca         1 2KD      -0.121000
     28 C28          7.2720     0.7510     0.7330 ca         1 2KD      -0.104000
     29 C29          5.8750     0.5960     0.6960 ca         1 2KD      -0.095000
     30 C30         -3.8040     2.3650     0.4120 ca         1 2KD      -0.061000
     31 C31         -3.5520     2.9410     1.6690 ca         1 2KD      -0.172000
     32 C32         -4.4100     2.6820     2.7470 ca         1 2KD       0.139100
     33 C33         -5.5240     1.8450     2.5720 ca         1 2KD      -0.172000
     34 C34         -5.7770     1.2650     1.3160 ca         1 2KD      -0.061000
     35 Cl           8.3870    -0.5160    -2.9470 cl         1 2KD      -0.230000
     36 O36         -4.1580     3.2460     3.9610 oh         1 2KD      -0.535100
     37 H1          -1.1180    -1.4730     2.5010 ha         1 2KD       0.159000
     38 H2           3.5630    -0.6930     1.5520 ha         1 2KD       0.166000
     39 H3           3.5220     0.5270    -2.5820 ha         1 2KD       0.099000
     40 H4           1.0760     0.2620    -2.6410 ha         1 2KD       0.110000
     41 H5          -2.5340    -0.4060    -1.6250 hn         1 2KD       0.356500
     42 H6          -5.2220    -1.1920    -0.5390 h1         1 2KD       0.086700
     43 H7          -4.7360     1.4910    -1.9240 hc         1 2KD       0.057700
     44 H8          -6.2680     0.8890    -1.3310 hc         1 2KD       0.057700
     45 H9          -6.4690    -1.3530    -4.9040 h1         1 2KD       0.043033
     46 H10         -6.1770    -2.9880    -4.2570 h1         1 2KD       0.043033
     47 H11         -7.7700    -2.2250    -4.0650 h1         1 2KD       0.043033
     48 H13          5.5630    -0.6330    -2.4800 ha         1 2KD       0.126000
     49 H14          9.1260     0.5270    -0.3630 ha         1 2KD       0.116000
     50 H15          7.7530     1.1380     1.6290 ha         1 2KD       0.112000
     51 H16          5.2920     0.8810     1.5690 ha         1 2KD       0.134000
     52 H17         -3.1290     2.5690    -0.4170 ha         1 2KD       0.113500
     53 H18         -2.6890     3.5890     1.8060 ha         1 2KD       0.119000
     54 H19         -6.1940     1.6370     3.4020 ha         1 2KD       0.119000
     55 H20         -6.6390     0.6130     1.1880 ha         1 2KD       0.113500
     56 H21         -4.8540     2.9550     4.5890 ho         1 2KD       0.461000
@<TRIPOS>BOND
     1     1     2 ar  
     2     1     6 ar  
     3     2     3 ar  
     4     2    11 1   
     5     3     4 ar  
     6     3    37 1   
     7     4     5 ar  
     8     4    12 1   
     9     5     6 ar  
    10     5     7 ar  
    11     6    10 ar  
    12     7     8 ar  
    13     7    38 1   
    14     8     9 ar  
    15     8    13 1   
    16     9    10 ar  
    17     9    39 1   
    18    10    40 1   
    19    11    14 2   
    20    11    15 1   
    21    12    23 1   
    22    12    24 1   
    23    13    25 ar  
    24    13    29 ar  
    25    15    16 1   
    26    15    41 1   
    27    16    17 1   
    28    16    19 1   
    29    16    42 1   
    30    17    18 1   
    31    17    43 1   
    32    17    44 1   
    33    18    30 ar  
    34    18    34 ar  
    35    19    20 2   
    36    19    21 1   
    37    21    22 1   
    38    22    45 1   
    39    22    46 1   
    40    22    47 1   
    41    25    26 ar  
    42    25    48 1   
    43    26    27 ar  
    44    26    35 1   
    45    27    28 ar  
    46    27    49 1   
    47    28    29 ar  
    48    28    50 1   
    49    29    51 1   
    50    30    31 ar  
    51    30    52 1   
    52    31    32 ar  
    53    31    53 1   
    54    32    33 ar  
    55    32    36 1   
    56    33    34 ar  
    57    33    54 1   
    58    34    55 1   
    59    36    56 1   
@<TRIPOS>SUBSTRUCTURE
     1 2KD         1 TEMP              0 ****  ****    0 ROOT
