@<TRIPOS>MOLECULE
2KD
   56    59     1     0     0
SMALL
abcg2


@<TRIPOS>ATOM
      1 N01         -0.6300    -0.4450    -0.2740 nb         1 2KD      -0.718000
      2 C02         -1.1850    -1.5190     0.2300 ca         1 2KD       0.312500
      3 C03         -0.4690    -2.5340     0.8820 ca         1 2KD      -0.122000
      4 C04          0.9000    -2.4580     0.9680 ca         1 2KD      -0.079600
      5 C05          1.5300    -1.3030     0.4250 ca         1 2KD      -0.055000
      6 C06          0.7050    -0.3090    -0.1670 ca         1 2KD       0.263000
      7 C07          2.9250    -1.0760     0.4800 ca         1 2KD      -0.021000
      8 C08          3.4830     0.0850    -0.0000 cp         1 2KD      -0.096000
      9 C09          2.6420     1.0670    -0.5810 ca         1 2KD      -0.098000
     10 C10          1.2960     0.8750    -0.6660 ca         1 2KD      -0.108000
     11 C11         -2.6750    -1.6330     0.0900 c          1 2KD       0.510600
     12 C12          1.6620    -3.6140     1.6320 c          1 2KD       0.720600
     13 C13          4.9400     0.3090     0.0830 cp         1 2KD       0.009000
     14 O14         -3.3030    -2.5760     0.5470 o          1 2KD      -0.605100
     15 N15         -3.2460    -0.6130    -0.5640 ns         1 2KD      -0.488900
     16 C16         -4.6560    -0.5530    -0.7930 c3         1 2KD       0.074700
     17 C17         -5.0560     0.8400    -1.3080 c3         1 2KD      -0.031100
     18 C18         -4.6120     1.9430    -0.3880 ca         1 2KD      -0.119300
     19 C19         -5.0850    -1.6110    -1.8000 c          1 2KD       0.570100
     20 O20         -4.3460    -2.2060    -2.5360 o          1 2KD      -0.459000
     21 O21         -6.4020    -1.7640    -1.7820 os         1 2KD      -0.451100
     22 C22         -6.9620    -2.6930    -2.7020 c3         1 2KD       0.151900
     23 O23          2.7340    -3.9340     1.0940 o          1 2KD      -0.698000
     24 O24          1.1030    -4.1150     2.6150 o          1 2KD      -0.698000
     25 C25          5.6110     0.9820    -0.9370 ca         1 2KD      -0.106000
     26 C26          6.9780     1.1870    -0.8530 ca         1 2KD       0.115000
     27 C27          7.7080     0.7340     0.2340 ca         1 2KD      -0.121000
     28 C28          7.0410     0.0640     1.2480 ca         1 2KD      -0.104000
     29 C29          5.6740    -0.1460     1.1790 ca         1 2KD      -0.095000
     30 C30         -3.6010     2.8260    -0.7560 ca         1 2KD      -0.061000
     31 C31         -3.1750     3.8380     0.0860 ca         1 2KD      -0.172000
     32 C32         -3.7620     3.9890     1.3370 ca         1 2KD       0.139100
     33 C33         -4.7770     3.1160     1.7220 ca         1 2KD      -0.172000
     34 C34         -5.1910     2.1100     0.8650 ca         1 2KD      -0.061000
     35 CL           7.7870     2.0150    -2.1370 cl         1 2KD      -0.230000
     36 O36         -3.3170     4.9880     2.1250 oh         1 2KD      -0.535100
     37 H1          -0.9930    -3.3770     1.3100 ha         1 2KD       0.159000
     38 H2           3.5480    -1.8590     0.8880 ha         1 2KD       0.166000
     39 H3           3.0670     1.9950    -0.9420 ha         1 2KD       0.099000
     40 H4           0.6530     1.6300    -1.1000 ha         1 2KD       0.110000
     41 H5          -2.6300     0.1090    -0.9090 hn         1 2KD       0.356500
     42 H6          -5.1890    -0.7490     0.1420 h1         1 2KD       0.086700
     43 H7          -4.6310     0.9940    -2.3030 hc         1 2KD       0.057700
     44 H8          -6.1390     0.8640    -1.4310 hc         1 2KD       0.057700
     45 H9          -6.7260    -2.4300    -3.7330 h1         1 2KD       0.043033
     46 H10         -6.6130    -3.7070    -2.5070 h1         1 2KD       0.043033
     47 H11         -8.0380    -2.6500    -2.5560 h1         1 2KD       0.043033
     48 H13          5.0750     1.3290    -1.8100 ha         1 2KD       0.126000
     49 H14          8.7750     0.9010     0.2880 ha         1 2KD       0.116000
     50 H15          7.5950    -0.2910     2.1070 ha         1 2KD       0.112000
     51 H16          5.1680    -0.6510     1.9910 ha         1 2KD       0.134000
     52 H17         -3.1390     2.7310    -1.7320 ha         1 2KD       0.113500
     53 H18         -2.3900     4.5170    -0.2210 ha         1 2KD       0.119000
     54 H19         -5.2510     3.2180     2.6920 ha         1 2KD       0.119000
     55 H20         -5.9870     1.4480     1.1870 ha         1 2KD       0.113500
     56 H21         -3.7950     4.9960     2.9580 ho         1 2KD       0.461000
@<TRIPOS>BOND
     1     1     2 ar  
     2     1     6 ar  
     3     2     3 ar  
     4     2    11 1   
     5     3     4 ar  
     6     3    37 1   
     7     4     5 ar  
     8     4    12 1   
     9     5     6 ar  
    10     5     7 ar  
    11     6    10 ar  
    12     7     8 ar  
    13     7    38 1   
    14     8     9 ar  
    15     8    13 1   
    16     9    10 ar  
    17     9    39 1   
    18    10    40 1   
    19    11    14 2   
    20    11    15 1   
    21    12    23 1   
    22    12    24 1   
    23    13    25 ar  
    24    13    29 ar  
    25    15    16 1   
    26    15    41 1   
    27    16    17 1   
    28    16    19 1   
    29    16    42 1   
    30    17    18 1   
    31    17    43 1   
    32    17    44 1   
    33    18    30 ar  
    34    18    34 ar  
    35    19    20 2   
    36    19    21 1   
    37    21    22 1   
    38    22    45 1   
    39    22    46 1   
    40    22    47 1   
    41    25    26 ar  
    42    25    48 1   
    43    26    27 ar  
    44    26    35 1   
    45    27    28 ar  
    46    27    49 1   
    47    28    29 ar  
    48    28    50 1   
    49    29    51 1   
    50    30    31 ar  
    51    30    52 1   
    52    31    32 ar  
    53    31    53 1   
    54    32    33 ar  
    55    32    36 1   
    56    33    34 ar  
    57    33    54 1   
    58    34    55 1   
    59    36    56 1   
@<TRIPOS>SUBSTRUCTURE
     1 2KD         1 TEMP              0 ****  ****    0 ROOT
