@<TRIPOS>MOLECULE
2KE
   73    76     1     0     0
SMALL
abcg2


@<TRIPOS>ATOM
      1 C18          5.2490    36.4040    24.9510 ca         1 2KE      -0.146000
      2 C17          5.8410    37.3080    25.8370 ca         1 2KE      -0.128300
      3 C15          7.2970    38.5000    24.2510 c          1 2KE       0.590100
      4 C19          3.9110    36.0700    25.0750 ca         1 2KE       0.109100
      5 C20          3.1390    36.6360    26.1160 ca         1 2KE       0.123100
      6 C21          3.7360    37.5240    26.9970 ca         1 2KE      -0.152000
      7 C22          5.0840    37.8620    26.8520 ca         1 2KE      -0.102000
      8 C11          9.6300    33.7390    27.1590 ca         1 2KE      -0.033000
      9 C34          2.9550    37.8810    21.2320 ca         1 2KE      -0.001000
     10 C33          2.7580    38.5810    22.4210 ca         1 2KE      -0.269500
     11 N1           6.5900    39.6450    24.2350 ns         1 2KE      -0.482900
     12 N2           9.0990    33.1570    30.8000 nb         1 2KE      -0.771000
     13 C3           8.3610    34.2600    31.0840 ca         1 2KE       0.382900
     14 C4           7.9910    35.1990    30.1640 ca         1 2KE      -0.220000
     15 C5           8.4070    35.0380    28.8150 ca         1 2KE       0.070000
     16 C6           9.1940    33.8970    28.4960 ca         1 2KE      -0.172000
     17 C7           9.5030    32.9780    29.5510 ca         1 2KE       0.620900
     18 C8           8.0710    35.9650    27.8090 ca         1 2KE      -0.215000
     19 C9           8.5060    35.7910    26.5020 ca         1 2KE       0.366000
     20 C10          9.2990    34.6480    26.1940 ca         1 2KE      -0.185000
     21 N13          8.2320    36.6750    25.4980 nu         1 2KE      -0.969200
     22 C14          7.2790    37.7480    25.5950 c3         1 2KE       0.211800
     23 O23          1.8290    36.2660    26.1290 os         1 2KE      -0.368100
     24 O24          3.2470    35.2350    24.2360 os         1 2KE      -0.346100
     25 C25          3.9130    34.8010    23.0410 c3         1 2KE       0.160600
     26 C26          2.9080    34.0510    22.2000 c3         1 2KE      -0.096100
     27 C28         -0.4550    36.5170    26.7120 c3         1 2KE      -0.105600
     28 C29          1.2510    35.8880    28.4650 c3         1 2KE      -0.105600
     29 C30          6.1300    40.2320    22.9800 c3         1 2KE       0.147300
     30 C31          5.0130    39.4200    22.3570 ca         1 2KE      -0.146300
     31 C32          3.7720    39.3370    22.9900 ca         1 2KE      -0.003000
     32 C35          4.1920    37.9530    20.6130 ca         1 2KE      -0.139000
     33 C36          5.2120    38.7200    21.1710 ca         1 2KE      -0.031000
     34 O38          1.2620    39.2380    24.4500 o          1 2KE      -0.562000
     35 O39          0.1960    39.1400    22.2130 o          1 2KE      -0.562000
     36 N40          0.7840    37.0030    23.2870 n8         1 2KE      -1.039100
     37 H1           5.8420    35.9820    24.1530 ha         1 2KE       0.130000
     38 H2           3.1670    37.9650    27.8000 ha         1 2KE       0.127000
     39 H3           5.5330    38.5640    27.5440 ha         1 2KE       0.115000
     40 H4          10.2430    32.8920    26.8770 ha         1 2KE       0.107000
     41 H5           2.1570    37.2880    20.8070 ha         1 2KE       0.131000
     42 H6           1.1480    37.7600    27.3910 h1         1 2KE       0.056700
     43 H7           6.0640    39.8760    25.0650 hn         1 2KE       0.315500
     44 H8           8.0590    34.3610    32.1210 h4         1 2KE       0.012100
     45 H9           7.3930    36.0530    30.4520 ha         1 2KE       0.118000
     46 H10          7.4670    36.8190    28.0800 ha         1 2KE       0.116000
     47 H11          9.6400    34.5110    25.1750 ha         1 2KE       0.113000
     48 H12         10.2730    31.1820    30.0440 hn         1 2KE       0.468000
     49 H13         10.3040    31.4910    28.3820 hn         1 2KE       0.468000
     50 H14          8.5100    36.4410    24.5560 hn         1 2KE       0.511000
     51 H15          7.5650    38.4470    26.3870 h1         1 2KE       0.076700
     52 H16          4.7600    34.1640    23.3100 h1         1 2KE       0.037700
     53 H17          4.2950    35.6760    22.5090 h1         1 2KE       0.037700
     54 H18          3.3880    33.7010    21.2850 hc         1 2KE       0.050033
     55 H19          2.5200    33.1840    22.7380 hc         1 2KE       0.050033
     56 H20          2.0740    34.6990    21.9280 hc         1 2KE       0.050033
     57 H21         -1.1570    36.7980    27.4970 hc         1 2KE       0.047867
     58 H22         -0.6440    37.1410    25.8390 hc         1 2KE       0.047867
     59 H23         -0.6340    35.4730    26.4460 hc         1 2KE       0.047867
     60 H24          0.6140    36.2360    29.2800 hc         1 2KE       0.047867
     61 H25          1.0380    34.8320    28.2850 hc         1 2KE       0.047867
     62 H26          2.2900    35.9840    28.7810 hc         1 2KE       0.047867
     63 H27          6.9710    40.2990    22.2940 h1         1 2KE       0.070200
     64 H28          5.7890    41.2420    23.2020 h1         1 2KE       0.070200
     65 H29          3.5940    39.8610    23.9190 ha         1 2KE       0.135000
     66 H30          4.3650    37.4070    19.6940 ha         1 2KE       0.121000
     67 H31          6.1770    38.7710    20.6810 ha         1 2KE       0.126000
     68 H32          1.1850    36.5600    24.1140 hn         1 2KE       0.496000
     69 H33         -0.2140    36.8440    23.2020 hn         1 2KE       0.496000
     70 O16          7.8630    38.0400    23.2640 o          1 2KE      -0.604100
     71 N12         10.2890    31.8760    29.3120 nv         1 2KE      -1.053900
     72 S37          1.1450    38.5920    23.1600 sy         1 2KE       1.164600
     73 C27          0.9650    36.6980    27.2110 c3         1 2KE       0.172300
@<TRIPOS>BOND
     1     1     2 ar  
     2     1     4 ar  
     3     1    37 1   
     4     2     7 ar  
     5     2    22 1   
     6     3    11 1   
     7     3    22 1   
     8     3    70 2   
     9     4     5 ar  
    10     4    24 1   
    11     5     6 ar  
    12     5    23 1   
    13     6     7 ar  
    14     6    38 1   
    15     7    39 1   
    16     8    16 ar  
    17     8    20 ar  
    18     8    40 1   
    19     9    10 ar  
    20     9    32 ar  
    21     9    41 1   
    22    10    31 ar  
    23    10    72 1   
    24    11    29 1   
    25    11    43 1   
    26    12    13 ar  
    27    12    17 ar  
    28    13    14 ar  
    29    13    44 1   
    30    14    15 ar  
    31    14    45 1   
    32    15    16 ar  
    33    15    18 ar  
    34    16    17 ar  
    35    17    71 1   
    36    18    19 ar  
    37    18    46 1   
    38    19    20 ar  
    39    19    21 1   
    40    20    47 1   
    41    21    22 1   
    42    21    50 1   
    43    22    51 1   
    44    23    73 1   
    45    24    25 1   
    46    25    26 1   
    47    25    52 1   
    48    25    53 1   
    49    26    54 1   
    50    26    55 1   
    51    26    56 1   
    52    27    57 1   
    53    27    58 1   
    54    27    59 1   
    55    27    73 1   
    56    28    60 1   
    57    28    61 1   
    58    28    62 1   
    59    28    73 1   
    60    29    30 1   
    61    29    63 1   
    62    29    64 1   
    63    30    31 ar  
    64    30    33 ar  
    65    31    65 1   
    66    32    33 ar  
    67    32    66 1   
    68    33    67 1   
    69    34    72 2   
    70    35    72 2   
    71    36    68 1   
    72    36    69 1   
    73    36    72 1   
    74    42    73 1   
    75    48    71 1   
    76    49    71 1   
@<TRIPOS>SUBSTRUCTURE
     1 2KE         1 TEMP              0 ****  ****    0 ROOT
