@<TRIPOS>MOLECULE
2KE
   73    76     1     0     0
SMALL
No Charge or Current Charge


@<TRIPOS>ATOM
      1 C18          5.4240    36.6630    24.7930 ca         1 2KE      -0.146000
      2 C17          6.0520    37.4890    25.7460 ca         1 2KE      -0.128300
      3 C15          7.4720    38.7640    24.1010 c          1 2KE       0.590100
      4 C19          4.0820    36.2610    24.9590 ca         1 2KE       0.109100
      5 C20          3.3650    36.6710    26.1100 ca         1 2KE       0.123100
      6 C21          4.0040    37.4880    27.0700 ca         1 2KE      -0.152000
      7 C22          5.3350    37.8950    26.8850 ca         1 2KE      -0.102000
      8 C11          8.9530    33.6090    27.2090 ca         1 2KE      -0.033000
      9 C34          2.7480    37.9050    21.1150 ca         1 2KE      -0.001000
     10 C33          2.6020    38.5610    22.3520 ca         1 2KE      -0.269500
     11 N1           6.4930    39.7290    23.9790 ns         1 2KE      -0.482900
     12 N2           8.4210    33.2370    30.8700 nb         1 2KE      -0.771000
     13 C3           8.0810    34.5070    31.1810 ca         1 2KE       0.382900
     14 C4           8.0060    35.5350    30.2280 ca         1 2KE      -0.220000
     15 C5           8.2940    35.2450    28.8860 ca         1 2KE       0.070000
     16 C6           8.6510    33.9260    28.5510 ca         1 2KE      -0.172000
     17 C7           8.6940    32.9820    29.5970 ca         1 2KE       0.620900
     18 C8           8.2310    36.2390    27.8980 ca         1 2KE      -0.215000
     19 C9           8.5170    35.9200    26.5630 ca         1 2KE       0.366000
     20 C10          8.8850    34.6100    26.2230 ca         1 2KE      -0.185000
     21 N13          8.4530    36.8880    25.5650 nu         1 2KE      -0.969200
     22 C14          7.4690    38.0110    25.4850 c3         1 2KE       0.211800
     23 O23          2.0380    36.2830    26.2400 os         1 2KE      -0.368100
     24 O24          3.4370    35.4870    24.0060 os         1 2KE      -0.346100
     25 C25          4.1150    34.9690    22.8480 c3         1 2KE       0.160600
     26 C26          3.0960    34.1560    22.0360 c3         1 2KE      -0.096100
     27 C28         -0.1800    36.1250    27.1220 c3         1 2KE      -0.105600
     28 C29          1.8490    35.3110    28.4520 c3         1 2KE      -0.105600
     29 C30          6.0270    40.2760    22.7090 c3         1 2KE       0.147300
     30 C31          4.8820    39.4320    22.1570 ca         1 2KE      -0.146300
     31 C32          3.6700    39.3240    22.8720 ca         1 2KE      -0.003000
     32 C35          3.9620    37.9960    20.4130 ca         1 2KE      -0.139000
     33 C36          5.0260    38.7550    20.9310 ca         1 2KE      -0.031000
     34 O38          1.1520    39.1030    24.5400 o          1 2KE      -0.562000
     35 O39         -0.0700    38.7210    22.3170 o          1 2KE      -0.562000
     36 N40          0.9240    36.8780    23.5790 n8         1 2KE      -1.039100
     37 H1           5.9870    36.3680    23.9130 ha         1 2KE       0.130000
     38 H2           3.4800    37.8350    27.9550 ha         1 2KE       0.127000
     39 H3           5.8020    38.5430    27.6240 ha         1 2KE       0.115000
     40 H4           9.2410    32.6000    26.9220 ha         1 2KE       0.107000
     41 H5           1.9260    37.3260    20.6950 ha         1 2KE       0.131000
     42 H6           1.3770    37.3730    27.9180 h1         1 2KE       0.056700
     43 H7           5.9160    39.8840    24.7980 hn         1 2KE       0.315500
     44 H8           7.8610    34.7070    32.2290 h4         1 2KE       0.012100
     45 H9           7.7250    36.5380    30.5350 ha         1 2KE       0.118000
     46 H10          7.9620    37.2540    28.1700 ha         1 2KE       0.116000
     47 H11          9.1140    34.3600    25.1910 ha         1 2KE       0.113000
     48 H12          8.7640    31.1250    30.2710 hn         1 2KE       0.468000
     49 H13          8.8310    31.2600    28.5570 hn         1 2KE       0.468000
     50 H14          8.8410    36.5980    24.6650 hn         1 2KE       0.511000
     51 H15          7.7110    38.7670    26.2460 h1         1 2KE       0.076700
     52 H16          4.9480    34.3180    23.1450 h1         1 2KE       0.037700
     53 H17          4.5090    35.7840    22.2270 h1         1 2KE       0.037700
     54 H18          3.5760    33.7270    21.1480 hc         1 2KE       0.050033
     55 H19          2.6900    33.3340    22.6380 hc         1 2KE       0.050033
     56 H20          2.2670    34.7910    21.7040 hc         1 2KE       0.050033
     57 H21         -0.7980    36.1440    28.0270 hc         1 2KE       0.047867
     58 H22         -0.5500    36.9040    26.4450 hc         1 2KE       0.047867
     59 H23         -0.3090    35.1500    26.6370 hc         1 2KE       0.047867
     60 H24          1.2600    35.3020    29.3770 hc         1 2KE       0.047867
     61 H25          1.8000    34.3100    28.0060 hc         1 2KE       0.047867
     62 H26          2.8900    35.5180    28.7210 hc         1 2KE       0.047867
     63 H27          6.8580    40.3150    21.9920 h1         1 2KE       0.070200
     64 H28          5.6780    41.3040    22.8720 h1         1 2KE       0.070200
     65 H29          3.5590    39.8460    23.8210 ha         1 2KE       0.135000
     66 H30          4.0760    37.4830    19.4610 ha         1 2KE       0.121000
     67 H31          5.9580    38.8220    20.3730 ha         1 2KE       0.126000
     68 H32          1.8810    36.5520    23.4530 hn         1 2KE       0.496000
     69 H33          0.8720    36.9220    24.5950 hn         1 2KE       0.496000
     70 O16          8.2260    38.4810    23.1730 o          1 2KE      -0.604100
     71 N12          8.9960    31.6860    29.4610 nv         1 2KE      -1.053900
     72 S37          1.0420    38.4640    23.2320 sy         1 2KE       1.164600
     73 C27          1.2990    36.3730    27.4740 c3         1 2KE       0.172300
@<TRIPOS>BOND
     1     1     2 ar  
     2     1     4 ar  
     3     1    37 1   
     4     2     7 ar  
     5     2    22 1   
     6     3    11 1   
     7     3    22 1   
     8     3    70 2   
     9     4     5 ar  
    10     4    24 1   
    11     5     6 ar  
    12     5    23 1   
    13     6     7 ar  
    14     6    38 1   
    15     7    39 1   
    16     8    16 ar  
    17     8    20 ar  
    18     8    40 1   
    19     9    10 ar  
    20     9    32 ar  
    21     9    41 1   
    22    10    31 ar  
    23    10    72 1   
    24    11    29 1   
    25    11    43 1   
    26    12    13 ar  
    27    12    17 ar  
    28    13    14 ar  
    29    13    44 1   
    30    14    15 ar  
    31    14    45 1   
    32    15    16 ar  
    33    15    18 ar  
    34    16    17 ar  
    35    17    71 1   
    36    18    19 ar  
    37    18    46 1   
    38    19    20 ar  
    39    19    21 1   
    40    20    47 1   
    41    21    22 1   
    42    21    50 1   
    43    22    51 1   
    44    23    73 1   
    45    24    25 1   
    46    25    26 1   
    47    25    52 1   
    48    25    53 1   
    49    26    54 1   
    50    26    55 1   
    51    26    56 1   
    52    27    57 1   
    53    27    58 1   
    54    27    59 1   
    55    27    73 1   
    56    28    60 1   
    57    28    61 1   
    58    28    62 1   
    59    28    73 1   
    60    29    30 1   
    61    29    63 1   
    62    29    64 1   
    63    30    31 ar  
    64    30    33 ar  
    65    31    65 1   
    66    32    33 ar  
    67    32    66 1   
    68    33    67 1   
    69    34    72 2   
    70    35    72 2   
    71    36    68 1   
    72    36    69 1   
    73    36    72 1   
    74    42    73 1   
    75    48    71 1   
    76    49    71 1   
@<TRIPOS>SUBSTRUCTURE
     1 2KE         1 TEMP              0 ****  ****    0 ROOT
