@<TRIPOS>MOLECULE
2KF
   80    83     1     0     0
SMALL
No Charge or Current Charge


@<TRIPOS>ATOM
      1 C13          6.3630    37.1430    26.0900 ca         1 2KF      -0.132300
      2 C18          4.3670    35.9660    25.2830 ca         1 2KF       0.115100
      3 C17          5.7250    36.3270    25.1330 ca         1 2KF      -0.149000
      4 C19          3.6480    36.4030    26.4220 ca         1 2KF       0.130100
      5 C20          4.2920    37.2190    27.3800 ca         1 2KF      -0.175000
      6 C21          5.6370    37.5870    27.2100 ca         1 2KF      -0.105000
      7 C12          7.8180    37.5770    25.8860 c3         1 2KF       0.211800
      8 C34          4.4800    39.2570    20.2440 ca         1 2KF      -0.030000
      9 C33          3.5070    38.5530    20.9660 ca         1 2KF      -0.127000
     10 C1           7.9960    34.2430    31.7150 ca         1 2KF       0.382900
     11 N2           8.2370    32.9390    31.4530 nb         1 2KF      -0.770000
     12 C3           8.5230    32.6210    30.1970 ca         1 2KF       0.618900
     13 C4           8.5900    33.5300    29.1220 ca         1 2KF      -0.170000
     14 C5           8.3360    34.8840    29.4060 ca         1 2KF       0.069000
     15 C6           8.0340    35.2410    30.7290 ca         1 2KF      -0.219000
     16 C7           8.9020    33.1450    27.8000 ca         1 2KF      -0.034000
     17 C8           8.9460    34.1150    26.7830 ca         1 2KF      -0.184000
     18 C9           8.6810    35.4620    27.0710 ca         1 2KF       0.360000
     19 C10          8.3840    35.8480    28.3870 ca         1 2KF      -0.212000
     20 N11          8.7250    36.3990    26.0430 nu         1 2KF      -0.964200
     21 C14          7.9600    38.2990    24.4930 c          1 2KF       0.595100
     22 O15          8.6340    37.8520    23.5690 o          1 2KF      -0.606100
     23 N16          7.2230    39.4600    24.3580 ns         1 2KF      -0.490900
     24 O22          3.7090    35.2010    24.3330 os         1 2KF      -0.336100
     25 O23          2.3150    36.0360    26.5420 os         1 2KF      -0.341100
     26 C25          0.0710    35.9740    27.3650 c3         1 2KF      -0.105600
     27 C26          2.0390    35.1690    28.7920 c3         1 2KF      -0.105600
     28 C28          3.2830    34.0380    22.2780 c3         1 2KF      -0.093100
     29 C29          6.9950    40.1520    23.0830 c3         1 2KF       0.137300
     30 C30          5.7730    39.6270    22.2990 ca         1 2KF      -0.002300
     31 C31          4.7550    38.9380    23.0060 ca         1 2KF      -0.133000
     32 C32          3.6390    38.4020    22.3490 ca         1 2KF      -0.051000
     33 C35          5.6110    39.8110    20.8900 ca         1 2KF      -0.249500
     34 S36          6.7710    40.7350    19.8260 sy         1 2KF       1.036500
     35 O37          5.9990    41.3270    18.7240 o          1 2KF      -0.532500
     36 O38          7.6520    41.5760    20.6460 o          1 2KF      -0.532500
     37 C39          7.8090    39.4280    19.0680 c3         1 2KF      -0.253700
     38 C40          8.5110    38.5320    20.1210 c3         1 2KF      -0.078100
     39 C41          8.8210    40.0240    18.0560 c3         1 2KF      -0.078100
     40 H1           6.2960    35.9950    24.2710 ha         1 2KF       0.130000
     41 H2           3.7660    37.5870    28.2540 ha         1 2KF       0.124000
     42 H3           6.1120    38.2240    27.9530 ha         1 2KF       0.112000
     43 H4           1.6390    37.2170    28.1480 h1         1 2KF       0.039700
     44 H5           8.0680    38.3310    26.6450 h1         1 2KF       0.074700
     45 H6           4.3460    39.3720    19.1690 ha         1 2KF       0.133000
     46 H7           5.1880    34.1290    23.3050 h1         1 2KF       0.036700
     47 H8           4.6880    35.6620    22.5370 h1         1 2KF       0.036700
     48 H9           2.6440    38.1350    20.4520 ha         1 2KF       0.123000
     49 H10          7.7630    34.4940    32.7490 h4         1 2KF       0.012100
     50 H11          7.8310    36.2730    30.9970 ha         1 2KF       0.119000
     51 H12          9.1120    32.1070    27.5530 ha         1 2KF       0.107000
     52 H13          9.1820    33.8140    25.7670 ha         1 2KF       0.114000
     53 H14          8.1940    36.8900    28.6190 ha         1 2KF       0.116000
     54 H15          9.1120    36.0470    25.1650 hn         1 2KF       0.508000
     55 H16          6.6930    39.7600    25.1690 hn         1 2KF       0.319500
     56 H17         -0.5750    36.0810    28.2440 hc         1 2KF       0.048867
     57 H18         -0.2460    36.7100    26.6170 hc         1 2KF       0.048867
     58 H19         -0.0760    34.9700    26.9480 hc         1 2KF       0.048867
     59 H20          1.4260    35.2230    29.6990 hc         1 2KF       0.048867
     60 H21          1.9720    34.1500    28.3930 hc         1 2KF       0.048867
     61 H22          3.0790    35.3590    29.0790 hc         1 2KF       0.048867
     62 H23          3.7170    33.7030    21.3280 hc         1 2KF       0.048700
     63 H24          2.9220    33.1560    22.8210 hc         1 2KF       0.048700
     64 H25          2.4290    34.6880    22.0560 hc         1 2KF       0.048700
     65 H26          7.9050    40.0380    22.4850 h1         1 2KF       0.090200
     66 H27          6.8590    41.2230    23.2830 h1         1 2KF       0.090200
     67 H28          4.8140    38.8070    24.0820 ha         1 2KF       0.121000
     68 H29          2.8780    37.8690    22.9150 ha         1 2KF       0.128000
     69 H30          7.1040    38.8000    18.5110 h1         1 2KF       0.088700
     70 H31          7.7820    38.0530    20.7860 hc         1 2KF       0.054867
     71 H32          9.0810    37.7350    19.6290 hc         1 2KF       0.054867
     72 H33          9.2110    39.1150    20.7340 hc         1 2KF       0.054867
     73 H34          9.3880    39.2270    17.5610 hc         1 2KF       0.054867
     74 H35          8.3060    40.6010    17.2780 hc         1 2KF       0.054867
     75 H36          9.5360    40.6890    18.5590 hc         1 2KF       0.054867
     76 H37          8.4190    30.7850    30.9280 hn         1 2KF       0.467500
     77 H38          8.5470    30.8600    29.2140 hn         1 2KF       0.467500
     78 N42          8.7190    31.3000    30.1090 nv         1 2KF      -1.050900
     79 C24          1.5460    36.1990    27.7490 c3         1 2KF       0.172300
     80 C27          4.3350    34.7910    23.1060 c3         1 2KF       0.158600
@<TRIPOS>BOND
     1     1     3 ar  
     2     1     6 ar  
     3     1     7 1   
     4     2     3 ar  
     5     2     4 ar  
     6     2    24 1   
     7     3    40 1   
     8     4     5 ar  
     9     4    25 1   
    10     5     6 ar  
    11     5    41 1   
    12     6    42 1   
    13     7    20 1   
    14     7    21 1   
    15     7    44 1   
    16     8     9 ar  
    17     8    33 ar  
    18     8    45 1   
    19     9    32 ar  
    20     9    48 1   
    21    10    11 ar  
    22    10    15 ar  
    23    10    49 1   
    24    11    12 ar  
    25    12    13 ar  
    26    12    78 1   
    27    13    14 ar  
    28    13    16 ar  
    29    14    15 ar  
    30    14    19 ar  
    31    15    50 1   
    32    16    17 ar  
    33    16    51 1   
    34    17    18 ar  
    35    17    52 1   
    36    18    19 ar  
    37    18    20 1   
    38    19    53 1   
    39    20    54 1   
    40    21    22 2   
    41    21    23 1   
    42    23    29 1   
    43    23    55 1   
    44    24    80 1   
    45    25    79 1   
    46    26    56 1   
    47    26    57 1   
    48    26    58 1   
    49    26    79 1   
    50    27    59 1   
    51    27    60 1   
    52    27    61 1   
    53    27    79 1   
    54    28    62 1   
    55    28    63 1   
    56    28    64 1   
    57    28    80 1   
    58    29    30 1   
    59    29    65 1   
    60    29    66 1   
    61    30    31 ar  
    62    30    33 ar  
    63    31    32 ar  
    64    31    67 1   
    65    32    68 1   
    66    33    34 1   
    67    34    35 2   
    68    34    36 2   
    69    34    37 1   
    70    37    38 1   
    71    37    39 1   
    72    37    69 1   
    73    38    70 1   
    74    38    71 1   
    75    38    72 1   
    76    39    73 1   
    77    39    74 1   
    78    39    75 1   
    79    43    79 1   
    80    46    80 1   
    81    47    80 1   
    82    76    78 1   
    83    77    78 1   
@<TRIPOS>SUBSTRUCTURE
     1 2KF         1 TEMP              0 ****  ****    0 ROOT
