@<TRIPOS>MOLECULE
2KF
   80    83     1     0     0
SMALL
abcg2


@<TRIPOS>ATOM
      1 C13          6.2400    36.8510    26.1160 ca         1 2KF      -0.132300
      2 C18          4.2770    35.7000    25.2950 ca         1 2KF       0.115100
      3 C17          5.6490    35.8880    25.2930 ca         1 2KF      -0.149000
      4 C19          3.4620    36.4830    26.1490 ca         1 2KF       0.130100
      5 C20          4.0620    37.4090    26.9910 ca         1 2KF      -0.175000
      6 C21          5.4460    37.5960    26.9690 ca         1 2KF      -0.105000
      7 C12          7.7200    37.1720    25.9430 c3         1 2KF       0.211800
      8 C34          4.3340    39.4680    20.7450 ca         1 2KF      -0.030000
      9 C33          3.4140    38.7180    21.4620 ca         1 2KF      -0.127000
     10 C1           8.3300    33.9480    31.6340 ca         1 2KF       0.382900
     11 N2           9.0040    32.7860    31.4480 nb         1 2KF      -0.770000
     12 C3           9.4410    32.5020    30.2300 ca         1 2KF       0.618900
     13 C4           9.2360    33.3730    29.1100 ca         1 2KF      -0.170000
     14 C5           8.5140    34.5790    29.3270 ca         1 2KF       0.069000
     15 C6           8.0560    34.8490    30.6450 ca         1 2KF      -0.219000
     16 C7           9.7140    33.1050    27.8050 ca         1 2KF      -0.034000
     17 C8           9.4840    33.9730    26.7740 ca         1 2KF      -0.184000
     18 C9           8.7580    35.1810    26.9810 ca         1 2KF       0.360000
     19 C10          8.2800    35.4610    28.2540 ca         1 2KF      -0.212000
     20 N11          8.5930    36.0290    25.9210 nu         1 2KF      -0.964200
     21 C14          7.8490    37.8880    24.5880 c          1 2KF       0.595100
     22 O15          8.2640    37.3050    23.5910 o          1 2KF      -0.606100
     23 N16          7.3990    39.1550    24.5760 ns         1 2KF      -0.490900
     24 O22          3.6210    34.8230    24.4940 os         1 2KF      -0.336100
     25 O23          2.1280    36.2620    26.0400 os         1 2KF      -0.341100
     26 C25         -0.1260    36.9740    26.1170 c3         1 2KF      -0.105600
     27 C26          1.1150    36.4130    28.2480 c3         1 2KF      -0.105600
     28 C28          3.4240    33.1940    22.7740 c3         1 2KF      -0.093100
     29 C29          7.1610    39.8850    23.3460 c3         1 2KF       0.137300
     30 C30          5.8540    39.5050    22.6560 ca         1 2KF      -0.002300
     31 C31          4.8960    38.7760    23.3590 ca         1 2KF      -0.133000
     32 C32          3.6970    38.3810    22.7780 ca         1 2KF      -0.051000
     33 C35          5.5360    39.8610    21.3340 ca         1 2KF      -0.249500
     34 S36          6.5990    40.8400    20.2820 sy         1 2KF       1.036500
     35 O37          5.7430    41.6230    19.4040 o          1 2KF      -0.532500
     36 O38          7.5530    41.5690    21.1010 o          1 2KF      -0.532500
     37 C39          7.4850    39.6410    19.2510 c3         1 2KF      -0.253700
     38 C40          8.2590    38.6380    20.0950 c3         1 2KF      -0.078100
     39 C41          8.3760    40.4100    18.2790 c3         1 2KF      -0.078100
     40 H1           6.2740    35.3160    24.6230 ha         1 2KF       0.130000
     41 H2           3.4650    38.0040    27.6650 ha         1 2KF       0.124000
     42 H3           5.8930    38.3420    27.6140 ha         1 2KF       0.112000
     43 H4           1.5470    38.0500    26.9060 h1         1 2KF       0.039700
     44 H5           8.0190    37.8650    26.7350 h1         1 2KF       0.074700
     45 H6           4.1230    39.7600    19.7270 ha         1 2KF       0.133000
     46 H7           5.1180    33.4470    24.0920 h1         1 2KF       0.036700
     47 H8           4.9310    34.7400    22.8920 h1         1 2KF       0.036700
     48 H9           2.4860    38.4120    20.9980 ha         1 2KF       0.123000
     49 H10          7.9970    34.1340    32.6500 h4         1 2KF       0.012100
     50 H11          7.5050    35.7560    30.8560 ha         1 2KF       0.119000
     51 H12         10.2830    32.2070    27.6030 ha         1 2KF       0.107000
     52 H13          9.8590    33.7550    25.7820 ha         1 2KF       0.114000
     53 H14          7.7210    36.3650    28.4470 ha         1 2KF       0.116000
     54 H15          8.8470    35.7040    25.0000 hn         1 2KF       0.508000
     55 H16          7.0330    39.5380    25.4340 hn         1 2KF       0.319500
     56 H17         -0.8760    37.5370    26.6740 hc         1 2KF       0.048867
     57 H18         -0.0280    37.4150    25.1230 hc         1 2KF       0.048867
     58 H19         -0.4720    35.9440    26.0120 hc         1 2KF       0.048867
     59 H20          0.4260    36.9970    28.8620 hc         1 2KF       0.048867
     60 H21          0.7440    35.3880    28.1900 hc         1 2KF       0.048867
     61 H22          2.0870    36.4040    28.7410 hc         1 2KF       0.048867
     62 H23          3.9750    32.5940    22.0480 hc         1 2KF       0.048700
     63 H24          2.8840    32.5190    23.4400 hc         1 2KF       0.048700
     64 H25          2.7000    33.8090    22.2360 hc         1 2KF       0.048700
     65 H26          8.0020    39.7140    22.6820 h1         1 2KF       0.090200
     66 H27          7.1570    40.9460    23.5850 h1         1 2KF       0.090200
     67 H28          5.0900    38.5010    24.3830 ha         1 2KF       0.121000
     68 H29          2.9890    37.8060    23.3610 ha         1 2KF       0.128000
     69 H30          6.6780    39.1400    18.7110 h1         1 2KF       0.088700
     70 H31          7.6150    38.0970    20.7870 hc         1 2KF       0.054867
     71 H32          8.7210    37.9090    19.4270 hc         1 2KF       0.054867
     72 H33          9.0530    39.1300    20.6580 hc         1 2KF       0.054867
     73 H34          8.8450    39.6930    17.6020 hc         1 2KF       0.054867
     74 H35          7.8060    41.1220    17.6830 hc         1 2KF       0.054867
     75 H36          9.1640    40.9410    18.8120 hc         1 2KF       0.054867
     76 H37         10.0560    30.6900    30.8580 hn         1 2KF       0.467500
     77 H38         10.1710    30.8950    29.1840 hn         1 2KF       0.467500
     78 N42         10.1550    31.3360    30.0890 nv         1 2KF      -1.050900
     79 C24          1.1990    37.0150    26.8540 c3         1 2KF       0.172300
     80 C27          4.3880    34.0580    23.5530 c3         1 2KF       0.158600
@<TRIPOS>BOND
     1     1     3 ar  
     2     1     6 ar  
     3     1     7 1   
     4     2     3 ar  
     5     2     4 ar  
     6     2    24 1   
     7     3    40 1   
     8     4     5 ar  
     9     4    25 1   
    10     5     6 ar  
    11     5    41 1   
    12     6    42 1   
    13     7    20 1   
    14     7    21 1   
    15     7    44 1   
    16     8     9 ar  
    17     8    33 ar  
    18     8    45 1   
    19     9    32 ar  
    20     9    48 1   
    21    10    11 ar  
    22    10    15 ar  
    23    10    49 1   
    24    11    12 ar  
    25    12    13 ar  
    26    12    78 1   
    27    13    14 ar  
    28    13    16 ar  
    29    14    15 ar  
    30    14    19 ar  
    31    15    50 1   
    32    16    17 ar  
    33    16    51 1   
    34    17    18 ar  
    35    17    52 1   
    36    18    19 ar  
    37    18    20 1   
    38    19    53 1   
    39    20    54 1   
    40    21    22 2   
    41    21    23 1   
    42    23    29 1   
    43    23    55 1   
    44    24    80 1   
    45    25    79 1   
    46    26    56 1   
    47    26    57 1   
    48    26    58 1   
    49    26    79 1   
    50    27    59 1   
    51    27    60 1   
    52    27    61 1   
    53    27    79 1   
    54    28    62 1   
    55    28    63 1   
    56    28    64 1   
    57    28    80 1   
    58    29    30 1   
    59    29    65 1   
    60    29    66 1   
    61    30    31 ar  
    62    30    33 ar  
    63    31    32 ar  
    64    31    67 1   
    65    32    68 1   
    66    33    34 1   
    67    34    35 2   
    68    34    36 2   
    69    34    37 1   
    70    37    38 1   
    71    37    39 1   
    72    37    69 1   
    73    38    70 1   
    74    38    71 1   
    75    38    72 1   
    76    39    73 1   
    77    39    74 1   
    78    39    75 1   
    79    43    79 1   
    80    46    80 1   
    81    47    80 1   
    82    76    78 1   
    83    77    78 1   
@<TRIPOS>SUBSTRUCTURE
     1 2KF         1 TEMP              0 ****  ****    0 ROOT
