@<TRIPOS>MOLECULE
2KG
   46    48     1     0     0
SMALL
No Charge or Current Charge


@<TRIPOS>ATOM
      1 C1          -0.4390    -2.1550    -0.3320 c          1 2KG       0.573000
      2 C2          -1.9940    -2.1200    -0.2090 cy         1 2KG      -0.134000
      3 C3          -1.7650    -0.7010     0.4260 cy         1 2KG       0.165000
      4 C6          -2.7410    -2.1910    -1.5620 c3         1 2KG      -0.073100
      5 C7          -2.5960    -3.1850     0.7340 c3         1 2KG      -0.073100
      6 C8          -2.4610     0.4890    -0.2450 ca         1 2KG      -0.134300
      7 C11         -4.4190     1.9340    -0.4740 ca         1 2KG      -0.198000
      8 C12         -3.7670     2.6640    -1.4810 ca         1 2KG      -0.064000
      9 C15          2.0930    -0.3520     0.1640 ca         1 2KG      -0.057000
     10 C16          3.1720     0.5010     0.4850 ca         1 2KG      -0.234500
     11 C17          2.9300     1.6920     1.2010 ca         1 2KG      -0.056000
     12 C18          1.6220     2.0200     1.5950 ca         1 2KG      -0.099000
     13 C19          0.5530     1.1670     1.2770 ca         1 2KG      -0.112000
     14 C21         -5.7250     0.3630     1.5860 c3         1 2KG       0.147900
     15 C23          4.9760     0.8400    -1.6570 c3         1 2KG      -0.338100
     16 O25          5.8120     0.7790     0.8270 o          1 2KG      -0.520000
     17 S22          4.8520     0.0800    -0.0380 sy         1 2KG       1.055500
     18 O24          4.9350    -1.3710    -0.2510 o          1 2KG      -0.520000
     19 C9           0.7800    -0.0230     0.5580 ca         1 2KG      -0.019000
     20 N4          -0.3060    -0.8760     0.2330 nj         1 2KG      -0.246400
     21 O5           0.3700    -2.9710    -0.7510 o          1 2KG      -0.488000
     22 C14         -1.8180     1.2260    -1.2640 ca         1 2KG      -0.057000
     23 C13         -2.4690     2.3090    -1.8750 ca         1 2KG      -0.147000
     24 C10         -3.7710     0.8430     0.1470 ca         1 2KG       0.149100
     25 H1          -1.9910    -0.6780     1.4990 h1         1 2KG       0.081700
     26 H2          -2.6750    -3.1940    -2.0010 hc         1 2KG       0.048033
     27 H3          -3.8040    -1.9450    -1.4420 hc         1 2KG       0.048033
     28 H4          -2.3170    -1.4890    -2.2900 hc         1 2KG       0.048033
     29 H5          -2.0820    -3.1930     1.7030 hc         1 2KG       0.048033
     30 H6          -3.6580    -2.9890     0.9250 hc         1 2KG       0.048033
     31 H7          -2.5090    -4.1910     0.3070 hc         1 2KG       0.048033
     32 H8          -5.4250     2.2290    -0.1910 ha         1 2KG       0.120000
     33 H9          -4.2700     3.5040    -1.9580 ha         1 2KG       0.115000
     34 H10          2.2790    -1.2660    -0.3960 ha         1 2KG       0.162000
     35 H11          3.7480     2.3660     1.4530 ha         1 2KG       0.136000
     36 H12          1.4380     2.9380     2.1480 ha         1 2KG       0.119000
     37 H13         -0.4520     1.4400     1.5920 ha         1 2KG       0.124000
     38 H14         -5.8030     1.3740     2.0040 h1         1 2KG       0.043367
     39 H15         -6.4400     0.2660     0.7590 h1         1 2KG       0.043367
     40 H16         -6.0110    -0.3510     2.3680 h1         1 2KG       0.043367
     41 H17          5.9740     0.6340    -2.0560 h1         1 2KG       0.102033
     42 H18          4.2030     0.4050    -2.2990 h1         1 2KG       0.102033
     43 H19          4.8200     1.9180    -1.5400 h1         1 2KG       0.102033
     44 H20         -0.8140     0.9640    -1.5900 ha         1 2KG       0.126000
     45 H21         -1.9670     2.8720    -2.6580 ha         1 2KG       0.120000
     46 O20         -4.3850     0.0970     1.1360 os         1 2KG      -0.349100
@<TRIPOS>BOND
     1     1     2 1   
     2     1    20 1   
     3     1    21 2   
     4     2     3 1   
     5     2     4 1   
     6     2     5 1   
     7     3     6 1   
     8     3    20 1   
     9     3    25 1   
    10     4    26 1   
    11     4    27 1   
    12     4    28 1   
    13     5    29 1   
    14     5    30 1   
    15     5    31 1   
    16     6    22 ar  
    17     6    24 ar  
    18     7     8 ar  
    19     7    24 ar  
    20     7    32 1   
    21     8    23 ar  
    22     8    33 1   
    23     9    10 ar  
    24     9    19 ar  
    25     9    34 1   
    26    10    11 ar  
    27    10    17 1   
    28    11    12 ar  
    29    11    35 1   
    30    12    13 ar  
    31    12    36 1   
    32    13    19 ar  
    33    13    37 1   
    34    14    38 1   
    35    14    39 1   
    36    14    40 1   
    37    14    46 1   
    38    15    17 1   
    39    15    41 1   
    40    15    42 1   
    41    15    43 1   
    42    16    17 2   
    43    17    18 2   
    44    19    20 1   
    45    22    23 ar  
    46    22    44 1   
    47    23    45 1   
    48    24    46 1   
@<TRIPOS>SUBSTRUCTURE
     1 2KG         1 TEMP              0 ****  ****    0 ROOT
