@<TRIPOS>MOLECULE
2KG
   46    48     1     0     0
SMALL
abcg2


@<TRIPOS>ATOM
      1 C1          -0.4950    -2.0860    -0.3140 c          1 2KG       0.573000
      2 C2          -2.0040    -2.0580    -0.1160 cy         1 2KG      -0.134000
      3 C3          -1.7640    -0.6150     0.4510 cy         1 2KG       0.165000
      4 C6          -2.7930    -2.1560    -1.4100 c3         1 2KG      -0.073100
      5 C7          -2.4920    -3.0520     0.9240 c3         1 2KG      -0.073100
      6 C8          -2.4200     0.5320    -0.2560 ca         1 2KG      -0.134300
      7 C11         -4.4040     1.8830    -0.5820 ca         1 2KG      -0.198000
      8 C12         -3.7330     2.6220    -1.5510 ca         1 2KG      -0.064000
      9 C15          2.0320    -0.3800     0.0530 ca         1 2KG      -0.057000
     10 C16          3.1000     0.4120     0.4360 ca         1 2KG      -0.234500
     11 C17          2.9510     1.5230     1.2550 ca         1 2KG      -0.056000
     12 C18          1.6760     1.8440     1.6920 ca         1 2KG      -0.099000
     13 C19          0.5860     1.0710     1.3260 ca         1 2KG      -0.112000
     14 C21         -5.6650     0.2870     1.3610 c3         1 2KG       0.147900
     15 C23          4.8750     1.0180    -1.6300 c3         1 2KG      -0.338100
     16 O25          5.7040     0.4630     0.8070 o          1 2KG      -0.520000
     17 S22          4.7210     0.0100    -0.1740 sy         1 2KG       1.055500
     18 O24          4.7290    -1.3930    -0.5810 o          1 2KG      -0.520000
     19 C9           0.7560    -0.0470     0.5100 ca         1 2KG      -0.019000
     20 N4          -0.3450    -0.8120     0.1600 nj         1 2KG      -0.246400
     21 O5           0.3070    -2.8950    -0.7070 o          1 2KG      -0.488000
     22 C14         -1.7780     1.2760    -1.2330 ca         1 2KG      -0.057000
     23 C13         -2.4240     2.3220    -1.8830 ca         1 2KG      -0.147000
     24 C10         -3.7520     0.8380     0.0620 ca         1 2KG       0.149100
     25 H1          -1.9470    -0.5650     1.5280 h1         1 2KG       0.081700
     26 H2          -2.7420    -3.1750    -1.7960 hc         1 2KG       0.048033
     27 H3          -3.8420    -1.9150    -1.2370 hc         1 2KG       0.048033
     28 H4          -2.4150    -1.4880    -2.1830 hc         1 2KG       0.048033
     29 H5          -1.9060    -3.0010     1.8430 hc         1 2KG       0.048033
     30 H6          -3.5330    -2.8460     1.1740 hc         1 2KG       0.048033
     31 H7          -2.4310    -4.0720     0.5420 hc         1 2KG       0.048033
     32 H8          -5.4290     2.1330    -0.3460 ha         1 2KG       0.120000
     33 H9          -4.2510     3.4330    -2.0460 ha         1 2KG       0.115000
     34 H10          2.1820    -1.2360    -0.5890 ha         1 2KG       0.162000
     35 H11          3.7990     2.1270     1.5480 ha         1 2KG       0.136000
     36 H12          1.5270     2.7050     2.3290 ha         1 2KG       0.119000
     37 H13         -0.4000     1.3420     1.6790 ha         1 2KG       0.124000
     38 H14         -5.8020     1.2850     1.7860 h1         1 2KG       0.043367
     39 H15         -6.3450     0.1670     0.5140 h1         1 2KG       0.043367
     40 H16         -5.9140    -0.4520     2.1180 h1         1 2KG       0.043367
     41 H17          5.8620     0.8330    -2.0520 h1         1 2KG       0.102033
     42 H18          4.1040     0.7400    -2.3450 h1         1 2KG       0.102033
     43 H19          4.7770     2.0660    -1.3560 h1         1 2KG       0.102033
     44 H20         -0.7550     1.0420    -1.5000 ha         1 2KG       0.126000
     45 H21         -1.9030     2.8930    -2.6400 ha         1 2KG       0.120000
     46 O20         -4.3210     0.0500     0.9950 os         1 2KG      -0.349100
@<TRIPOS>BOND
     1     1     2 1   
     2     1    20 1   
     3     1    21 2   
     4     2     3 1   
     5     2     4 1   
     6     2     5 1   
     7     3     6 1   
     8     3    20 1   
     9     3    25 1   
    10     4    26 1   
    11     4    27 1   
    12     4    28 1   
    13     5    29 1   
    14     5    30 1   
    15     5    31 1   
    16     6    22 ar  
    17     6    24 ar  
    18     7     8 ar  
    19     7    24 ar  
    20     7    32 1   
    21     8    23 ar  
    22     8    33 1   
    23     9    10 ar  
    24     9    19 ar  
    25     9    34 1   
    26    10    11 ar  
    27    10    17 1   
    28    11    12 ar  
    29    11    35 1   
    30    12    13 ar  
    31    12    36 1   
    32    13    19 ar  
    33    13    37 1   
    34    14    38 1   
    35    14    39 1   
    36    14    40 1   
    37    14    46 1   
    38    15    17 1   
    39    15    41 1   
    40    15    42 1   
    41    15    43 1   
    42    16    17 2   
    43    17    18 2   
    44    19    20 1   
    45    22    23 ar  
    46    22    44 1   
    47    23    45 1   
    48    24    46 1   
@<TRIPOS>SUBSTRUCTURE
     1 2KG         1 TEMP              0 ****  ****    0 ROOT
