@<TRIPOS>MOLECULE
2KJ
   32    31     1     0     0
SMALL
abcg2


@<TRIPOS>ATOM
      1 OA2          5.4900    -0.1110     1.2890 o          1 2KJ      -0.731000
      2 C            4.9210     0.3600     0.2830 c          1 2KJ       0.725000
      3 OA1          5.1910     1.4360    -0.2870 o          1 2KJ      -0.731000
      4 CA           3.7250    -0.4340    -0.2850 c3         1 2KJ       0.020500
      5 N            3.8740    -1.8520     0.0030 n8         1 2KJ      -0.988200
      6 CB           2.4290     0.1980     0.2510 c3         1 2KJ      -0.099400
      7 CG           1.1630    -0.3770    -0.3720 c3         1 2KJ      -0.092400
      8 CD          -0.0910     0.2890     0.1710 c3         1 2KJ       0.212800
      9 NE          -1.2720    -0.2780    -0.4420 nu         1 2KJ      -0.895400
     10 CZ          -2.5020     0.2640    -0.2010 c2         1 2KJ       0.754100
     11 NH2         -2.6550     1.3570     0.4330 n2         1 2KJ      -0.859100
     12 NH1         -3.5220    -0.5500    -0.7170 nu         1 2KJ      -0.682900
     13 OH          -4.7560     0.0680    -0.7320 os         1 2KJ      -0.252300
     14 C2          -5.6670    -0.6120     0.1270 c3         1 2KJ       0.158600
     15 C1          -6.9440     0.1950     0.1670 c3         1 2KJ      -0.098100
     16 H2           3.7230    -0.3080    -1.3740 h1         1 2KJ       0.043700
     17 H3           4.0360    -1.9610     0.9960 hn         1 2KJ       0.373500
     18 H4           3.0180    -2.3490    -0.2110 hn         1 2KJ       0.373500
     19 H6           2.3940     0.0710     1.3390 hc         1 2KJ       0.046700
     20 H7           2.4560     1.2750     0.0630 hc         1 2KJ       0.046700
     21 H8           1.2000    -0.2520    -1.4590 hc         1 2KJ       0.030200
     22 H9           1.1020    -1.4550    -0.1820 hc         1 2KJ       0.030200
     23 H10         -0.1190     0.1940     1.2640 h1         1 2KJ       0.051200
     24 H11         -0.0660     1.3590    -0.0440 h1         1 2KJ       0.051200
     25 H12         -1.2530    -1.2820    -0.5500 hn         1 2KJ       0.466000
     26 H13         -3.6270     1.6410     0.4200 hn         1 2KJ       0.388400
     27 H15         -3.3230    -0.9020    -1.6470 hn         1 2KJ       0.457000
     28 H16         -5.8590    -1.6200    -0.2540 h1         1 2KJ       0.036700
     29 H17         -5.2400    -0.7090     1.1290 h1         1 2KJ       0.036700
     30 H18         -7.6710    -0.3090     0.8030 hc         1 2KJ       0.042033
     31 H19         -6.7750     1.1910     0.5790 hc         1 2KJ       0.042033
     32 H20         -7.3860     0.3000    -0.8240 hc         1 2KJ       0.042033
@<TRIPOS>BOND
     1     1     2 1   
     2     2     3 1   
     3     2     4 1   
     4     4     5 1   
     5     4     6 1   
     6     4    16 1   
     7     5    17 1   
     8     5    18 1   
     9     6     7 1   
    10     6    19 1   
    11     6    20 1   
    12     7     8 1   
    13     7    21 1   
    14     7    22 1   
    15     8     9 1   
    16     8    23 1   
    17     8    24 1   
    18     9    10 1   
    19     9    25 1   
    20    10    11 2   
    21    10    12 1   
    22    11    26 1   
    23    12    13 1   
    24    12    27 1   
    25    13    14 1   
    26    14    15 1   
    27    14    28 1   
    28    14    29 1   
    29    15    30 1   
    30    15    31 1   
    31    15    32 1   
@<TRIPOS>SUBSTRUCTURE
     1 2KJ         1 TEMP              0 ****  ****    0 ROOT
