@<TRIPOS>MOLECULE
2KJ
   32    31     1     0     0
SMALL
No Charge or Current Charge


@<TRIPOS>ATOM
      1 OA2          5.4150     0.3460     1.3130 o          1 2KJ      -0.731000
      2 C            5.0890     0.3080     0.1320 c          1 2KJ       0.725000
      3 OA1          5.7570     0.8140    -0.7610 o          1 2KJ      -0.731000
      4 CA           3.7850    -0.5050    -0.2700 c3         1 2KJ       0.020500
      5 N            3.7750    -1.9730     0.0760 n8         1 2KJ      -0.988200
      6 CB           2.5100     0.1830     0.2870 c3         1 2KJ      -0.099400
      7 CG           1.1790    -0.3300    -0.3200 c3         1 2KJ      -0.092400
      8 CD          -0.0530     0.4330     0.2090 c3         1 2KJ       0.212800
      9 NE          -1.2820    -0.0830    -0.4090 nu         1 2KJ      -0.895400
     10 CZ          -2.5170     0.3790    -0.1400 c2         1 2KJ       0.754100
     11 NH2         -2.7610     1.3190     0.6570 n2         1 2KJ      -0.859100
     12 NH1         -3.4860    -0.3200    -0.7860 nu         1 2KJ      -0.682900
     13 OH          -4.8270     0.2070    -0.7050 os         1 2KJ      -0.252300
     14 C2          -5.6780    -0.6390     0.0930 c3         1 2KJ       0.158600
     15 C1          -7.0730     0.0080     0.1350 c3         1 2KJ      -0.098100
     16 H2           3.7220    -0.4440    -1.3660 h1         1 2KJ       0.043700
     17 H3           3.9070    -2.0700     1.0910 hn         1 2KJ       0.373500
     18 H4           2.8350    -2.3480    -0.0900 hn         1 2KJ       0.373500
     19 H6           2.4810     0.0750     1.3790 hc         1 2KJ       0.046700
     20 H7           2.5860     1.2600     0.0860 hc         1 2KJ       0.046700
     21 H8           1.2220    -0.2290    -1.4120 hc         1 2KJ       0.030200
     22 H9           1.0590    -1.3970    -0.0970 hc         1 2KJ       0.030200
     23 H10         -0.1040     0.3220     1.3020 h1         1 2KJ       0.051200
     24 H11          0.0600     1.5030    -0.0160 h1         1 2KJ       0.051200
     25 H12         -1.2650    -1.0420    -0.7340 hn         1 2KJ       0.466000
     26 H13         -3.7830     1.4010     0.6350 hn         1 2KJ       0.388400
     27 H15         -3.2500    -0.4640    -1.7660 hn         1 2KJ       0.457000
     28 H16         -5.7530    -1.6420    -0.3450 h1         1 2KJ       0.036700
     29 H17         -5.2880    -0.7320     1.1150 h1         1 2KJ       0.036700
     30 H18         -7.7560    -0.6050     0.7340 hc         1 2KJ       0.042033
     31 H19         -7.0230     1.0070     0.5840 hc         1 2KJ       0.042033
     32 H20         -7.4880     0.0980    -0.8760 hc         1 2KJ       0.042033
@<TRIPOS>BOND
     1     1     2 1   
     2     2     3 1   
     3     2     4 1   
     4     4     5 1   
     5     4     6 1   
     6     4    16 1   
     7     5    17 1   
     8     5    18 1   
     9     6     7 1   
    10     6    19 1   
    11     6    20 1   
    12     7     8 1   
    13     7    21 1   
    14     7    22 1   
    15     8     9 1   
    16     8    23 1   
    17     8    24 1   
    18     9    10 1   
    19     9    25 1   
    20    10    11 2   
    21    10    12 1   
    22    11    26 1   
    23    12    13 1   
    24    12    27 1   
    25    13    14 1   
    26    14    15 1   
    27    14    28 1   
    28    14    29 1   
    29    15    30 1   
    30    15    31 1   
    31    15    32 1   
@<TRIPOS>SUBSTRUCTURE
     1 2KJ         1 TEMP              0 ****  ****    0 ROOT
