@<TRIPOS>MOLECULE
2KK
   35    35     1     0     0
SMALL
bcc


@<TRIPOS>ATOM
      1 N           11.9160    19.2940    22.6820 n8         1 2KK      -0.893800
      2 CA          10.9220    18.2920    22.3210 c3         1 2KK       0.016500
      3 C            9.4400    18.7170    22.5080 c          1 2KK       0.904600
      4 O            9.2160    19.7710    23.1350 o          1 2KK      -0.841300
      5 CB          11.1810    17.0040    23.1060 c3         1 2KK      -0.059400
      6 CG          12.5490    16.3810    22.8550 c3         1 2KK      -0.069400
      7 CD          12.7870    15.0900    23.6310 c3         1 2KK      -0.092400
      8 CE          12.8390    15.2580    25.1480 c3         1 2KK       0.101000
      9 NZ          13.9100    16.1360    25.5700 ns         1 2KK      -0.566900
     10 O01         12.6420    17.7900    26.4520 o          1 2KK      -0.579100
     11 C02         13.7360    17.3410    26.1340 c          1 2KK       0.683700
     12 C04         14.9830    18.1310    26.3890 ca         1 2KK      -0.151600
     13 C05         16.1390    17.9930    25.6220 ca         1 2KK      -0.064000
     14 C06         17.2640    18.7600    25.8840 ca         1 2KK      -0.185000
     15 C07         17.2180    19.6660    26.9260 ca         1 2KK       0.142900
     16 F08         18.3040    20.4030    27.1920 f          1 2KK      -0.150900
     17 C09         16.0850    19.8390    27.6990 ca         1 2KK      -0.185000
     18 C10         14.9670    19.0730    27.4160 ca         1 2KK      -0.064000
     19 OXT          8.5880    17.9440    22.0190 o          1 2KK      -0.841300
     20 H1          11.7070    20.1520    22.1860 hn         1 2KK       0.327800
     21 H2          11.7830    19.5310    23.6590 hn         1 2KK       0.327800
     22 H4          11.0590    18.0630    21.2560 h1         1 2KK       0.033700
     23 H5          11.0570    17.2210    24.1730 hc         1 2KK       0.043700
     24 H6          10.4070    16.2760    22.8510 hc         1 2KK       0.043700
     25 H7          12.6450    16.1650    21.7850 hc         1 2KK       0.036200
     26 H8          13.3390    17.1000    23.0820 hc         1 2KK       0.036200
     27 H9          11.9980    14.3670    23.4030 hc         1 2KK       0.027200
     28 H10         13.7230    14.6310    23.2970 hc         1 2KK       0.027200
     29 H11         11.9020    15.6570    25.5300 h1         1 2KK       0.052700
     30 H12         12.9820    14.2820    25.6170 h1         1 2KK       0.052700
     31 H13         14.8470    15.8040    25.4070 hn         1 2KK       0.299500
     32 H14         16.1770    17.3050    24.7880 ha         1 2KK       0.148000
     33 H15         18.1570    18.6570    25.2820 ha         1 2KK       0.146000
     34 H16         16.0750    20.5590    28.5060 ha         1 2KK       0.146000
     35 H17         14.0730    19.2050    28.0110 ha         1 2KK       0.148000
@<TRIPOS>BOND
     1     1     2 1   
     2     1    20 1   
     3     1    21 1   
     4     2     3 1   
     5     2     5 1   
     6     2    22 1   
     7     3     4 1   
     8     3    19 1   
     9     5     6 1   
    10     5    23 1   
    11     5    24 1   
    12     6     7 1   
    13     6    25 1   
    14     6    26 1   
    15     7     8 1   
    16     7    27 1   
    17     7    28 1   
    18     8     9 1   
    19     8    29 1   
    20     8    30 1   
    21     9    11 1   
    22     9    31 1   
    23    10    11 2   
    24    11    12 1   
    25    12    13 ar  
    26    12    18 ar  
    27    13    14 ar  
    28    13    32 1   
    29    14    15 ar  
    30    14    33 1   
    31    15    16 1   
    32    15    17 ar  
    33    17    18 ar  
    34    17    34 1   
    35    18    35 1   
@<TRIPOS>SUBSTRUCTURE
     1 2KK         1 TEMP              0 ****  ****    0 ROOT
