@<TRIPOS>MOLECULE
2KN
   42    42     1     0     0
SMALL
abcg2


@<TRIPOS>ATOM
      1 C11          3.5320    -4.5290     0.5270 c3         1 2KN      -0.111433
      2 C10          2.0700    -4.4040     0.1470 c3         1 2KN       0.102667
      3 N9           1.6230    -3.0320     0.2970 ns         1 2KN      -0.504233
      4 C7           0.4520    -2.5950    -0.1850 c          1 2KN       0.610033
      5 O8          -0.3330    -3.3120    -0.7900 o          1 2KN      -0.595433
      6 C4           0.1420    -1.1490     0.0540 ca         1 2KN      -0.166933
      7 C5           1.1340    -0.1790     0.1370 ca         1 2KN      -0.023000
      8 C3          -1.1920    -0.7750     0.1650 ca         1 2KN      -0.023000
      9 C2          -1.5340     0.5490     0.4130 ca         1 2KN      -0.166933
     10 C17         -2.9550     0.9830     0.6080 c          1 2KN       0.610033
     11 O18         -3.2290     1.9250     1.3390 o          1 2KN      -0.595433
     12 N19         -3.8800     0.2800    -0.0570 ns         1 2KN      -0.504233
     13 C20         -5.3000     0.5590     0.0520 c3         1 2KN       0.102667
     14 C21         -6.0990    -0.4550    -0.7450 c3         1 2KN      -0.111433
     15 C1          -0.5320     1.5030     0.5370 ca         1 2KN      -0.023000
     16 C6           0.8000     1.1530     0.3620 ca         1 2KN      -0.166933
     17 C12          1.8360     2.2300     0.4650 c          1 2KN       0.610033
     18 O13          1.6500     3.2140     1.1680 o          1 2KN      -0.595433
     19 N14          2.9520     2.0420    -0.2520 ns         1 2KN      -0.504233
     20 C15          4.0440     2.9980    -0.2660 c3         1 2KN       0.102667
     21 C16          5.2690     2.3890    -0.9220 c3         1 2KN      -0.111433
     22 H1           3.8600    -5.5610     0.4080 hc         1 2KN       0.042811
     23 H2           4.1610    -3.9000    -0.1030 hc         1 2KN       0.042811
     24 H3           3.6990    -4.2470     1.5680 hc         1 2KN       0.042811
     25 H4           1.9230    -4.7110    -0.8890 h1         1 2KN       0.053200
     26 H5           1.4620    -5.0710     0.7660 h1         1 2KN       0.053200
     27 H6           2.1400    -2.4450     0.9320 hn         1 2KN       0.316500
     28 H7           2.1720    -0.4660     0.0290 ha         1 2KN       0.137333
     29 H8          -1.9560    -1.5390     0.0950 ha         1 2KN       0.137333
     30 H9          -3.5870    -0.3840    -0.7560 hn         1 2KN       0.316500
     31 H10         -5.5920     0.5260     1.1030 h1         1 2KN       0.053200
     32 H11         -5.5140     1.5690    -0.3060 h1         1 2KN       0.053200
     33 H12         -5.8590    -0.4050    -1.8080 hc         1 2KN       0.042811
     34 H13         -5.9100    -1.4710    -0.3970 hc         1 2KN       0.042811
     35 H14         -7.1640    -0.2570    -0.6340 hc         1 2KN       0.042811
     36 H15         -0.7930     2.5320     0.7490 ha         1 2KN       0.137333
     37 H16          2.9730     1.3090    -0.9420 hn         1 2KN       0.316500
     38 H17          3.7450     3.9070    -0.7950 h1         1 2KN       0.053200
     39 H18          4.2740     3.2870     0.7590 h1         1 2KN       0.053200
     40 H19          5.6050     1.5030    -0.3830 hc         1 2KN       0.042811
     41 H20          5.0710     2.1060    -1.9570 hc         1 2KN       0.042811
     42 H21          6.0850     3.1100    -0.9280 hc         1 2KN       0.042811
@<TRIPOS>BOND
     1     1     2 1   
     2     1    22 1   
     3     1    23 1   
     4     1    24 1   
     5     2     3 1   
     6     2    25 1   
     7     2    26 1   
     8     3     4 1   
     9     3    27 1   
    10     4     5 2   
    11     4     6 1   
    12     6     7 ar  
    13     6     8 ar  
    14     7    16 ar  
    15     7    28 1   
    16     8     9 ar  
    17     8    29 1   
    18     9    10 1   
    19     9    15 ar  
    20    10    11 2   
    21    10    12 1   
    22    12    13 1   
    23    12    30 1   
    24    13    14 1   
    25    13    31 1   
    26    13    32 1   
    27    14    33 1   
    28    14    34 1   
    29    14    35 1   
    30    15    16 ar  
    31    15    36 1   
    32    16    17 1   
    33    17    18 2   
    34    17    19 1   
    35    19    20 1   
    36    19    37 1   
    37    20    21 1   
    38    20    38 1   
    39    20    39 1   
    40    21    40 1   
    41    21    41 1   
    42    21    42 1   
@<TRIPOS>SUBSTRUCTURE
     1 2KN         1 TEMP              0 ****  ****    0 ROOT
