@<TRIPOS>MOLECULE
2KN
   42    42     1     0     0
SMALL
No Charge or Current Charge


@<TRIPOS>ATOM
      1 C11          3.6680    -4.3810    -0.1280 c3         1 2KN      -0.111433
      2 C10          2.1340    -4.3020    -0.1220 c3         1 2KN       0.102667
      3 N9           1.6680    -2.9150    -0.0840 ns         1 2KN      -0.504233
      4 C7           0.3420    -2.5420    -0.0720 c          1 2KN       0.610033
      5 O8          -0.5450    -3.3860    -0.0920 o          1 2KN      -0.595433
      6 C4           0.0380    -1.0560    -0.0310 ca         1 2KN      -0.166933
      7 C5           1.0590    -0.0760    -0.0070 ca         1 2KN      -0.023000
      8 C3          -1.3110    -0.6380    -0.0180 ca         1 2KN      -0.023000
      9 C2          -1.6520     0.7330     0.0200 ca         1 2KN      -0.166933
     10 C17         -3.0920     1.2080     0.0350 c          1 2KN       0.610033
     11 O18         -3.3850     2.3950     0.0670 o          1 2KN      -0.595433
     12 N19         -4.0720     0.2390     0.0110 ns         1 2KN      -0.504233
     13 C20         -5.5080     0.5180     0.0210 c3         1 2KN       0.102667
     14 C21         -6.3330    -0.7780    -0.0100 c3         1 2KN      -0.111433
     15 C1          -0.6150     1.6880     0.0430 ca         1 2KN      -0.023000
     16 C6           0.7420     1.3030     0.0310 ca         1 2KN      -0.166933
     17 C12          1.8090     2.3810     0.0580 c          1 2KN       0.610033
     18 O13          1.5290     3.5720     0.0900 o          1 2KN      -0.595433
     19 N14          3.1240     1.9680     0.0450 ns         1 2KN      -0.504233
     20 C15          4.2720     2.8740     0.0670 c3         1 2KN       0.102667
     21 C16          5.6000     2.1010     0.0430 c3         1 2KN      -0.111433
     22 H1           3.9940    -5.4280    -0.1560 hc         1 2KN       0.042811
     23 H2           4.0800    -3.8700    -1.0060 hc         1 2KN       0.042811
     24 H3           4.0840    -3.9170     0.7740 hc         1 2KN       0.042811
     25 H4           1.7380    -4.7870    -1.0250 h1         1 2KN       0.053200
     26 H5           1.7420    -4.8340     0.7560 h1         1 2KN       0.053200
     27 H6           2.3590    -2.1790    -0.0660 hn         1 2KN       0.316500
     28 H7           2.0990    -0.3860    -0.0170 ha         1 2KN       0.137333
     29 H8          -2.0900    -1.3960    -0.0370 ha         1 2KN       0.137333
     30 H9          -3.7700    -0.7260    -0.0150 hn         1 2KN       0.316500
     31 H10         -5.7540     1.0880     0.9270 h1         1 2KN       0.053200
     32 H11         -5.7580     1.1330    -0.8530 h1         1 2KN       0.053200
     33 H12         -6.1140    -1.3550    -0.9160 hc         1 2KN       0.042811
     34 H13         -6.1110    -1.4010     0.8640 hc         1 2KN       0.042811
     35 H14         -7.4050    -0.5450    -0.0020 hc         1 2KN       0.042811
     36 H15         -0.8680     2.7470     0.0720 ha         1 2KN       0.137333
     37 H16          3.2990     0.9730     0.0180 hn         1 2KN       0.316500
     38 H17          4.2190     3.5390    -0.8060 h1         1 2KN       0.053200
     39 H18          4.2230     3.4910     0.9740 h1         1 2KN       0.053200
     40 H19          5.6810     1.4430     0.9160 hc         1 2KN       0.042811
     41 H20          5.6780     1.4910    -0.8650 hc         1 2KN       0.042811
     42 H21          6.4460     2.7990     0.0600 hc         1 2KN       0.042811
@<TRIPOS>BOND
     1     1     2 1   
     2     1    22 1   
     3     1    23 1   
     4     1    24 1   
     5     2     3 1   
     6     2    25 1   
     7     2    26 1   
     8     3     4 1   
     9     3    27 1   
    10     4     5 2   
    11     4     6 1   
    12     6     7 ar  
    13     6     8 ar  
    14     7    16 ar  
    15     7    28 1   
    16     8     9 ar  
    17     8    29 1   
    18     9    10 1   
    19     9    15 ar  
    20    10    11 2   
    21    10    12 1   
    22    12    13 1   
    23    12    30 1   
    24    13    14 1   
    25    13    31 1   
    26    13    32 1   
    27    14    33 1   
    28    14    34 1   
    29    14    35 1   
    30    15    16 ar  
    31    15    36 1   
    32    16    17 1   
    33    17    18 2   
    34    17    19 1   
    35    19    20 1   
    36    19    37 1   
    37    20    21 1   
    38    20    38 1   
    39    20    39 1   
    40    21    40 1   
    41    21    41 1   
    42    21    42 1   
@<TRIPOS>SUBSTRUCTURE
     1 2KN         1 TEMP              0 ****  ****    0 ROOT
