@<TRIPOS>MOLECULE
2KO
  123   128     1     0     0
SMALL
No Charge or Current Charge


@<TRIPOS>ATOM
      1 C5           0.1390    -4.6190    -2.8860 c3         1 2KO       0.162600
      2 C3           0.9510    -2.9320    -4.4320 c3         1 2KO       0.157600
      3 C2           1.6900    -1.5760    -4.4500 c3         1 2KO       0.162600
      4 C1          -8.5450     0.6800     2.2360 c3         1 2KO       0.145300
      5 C6           0.1950    -5.0110    -1.3900 c3         1 2KO       0.159600
      6 C8          -0.6060    -4.3350     0.7920 c3         1 2KO       0.158600
      7 C9          -1.4700    -3.2610     1.4940 c3         1 2KO       0.163600
      8 C11          1.9670    -3.3040     3.7640 c3         1 2KO       0.229050
      9 C12          1.8950    -4.8330     3.6010 c3         1 2KO      -0.122100
     10 C13          7.3220     6.4480    -0.4790 c3         1 2KO       0.229050
     11 C14          5.8680     6.9110    -0.2760 c3         1 2KO      -0.122100
     12 O1           3.0440    -1.7870    -4.0000 os         1 2KO      -0.432100
     13 O7P          3.4930     0.4600    -4.0520 o          1 2KO      -0.488000
     14 C7P          3.8320    -0.6880    -3.7930 c          1 2KO       0.609700
     15 C1P          5.1910    -1.0480    -3.2680 ca         1 2KO      -0.125600
     16 C2P          5.6630    -0.5810    -2.0120 ca         1 2KO      -0.018300
     17 C2C          4.8100     0.2930    -1.0690 c6         1 2KO       0.105200
     18 C1C          5.5430     1.5880    -0.7230 ca         1 2KO      -0.196800
     19 C6C          5.8410     2.5140    -1.7370 ca         1 2KO      -0.025000
     20 C5C          6.5320     3.6970    -1.4280 ca         1 2KO      -0.217000
     21 C4C          6.9350     3.9730    -0.1090 ca         1 2KO       0.372000
     22 N1C          7.6320     5.1680     0.2020 nh         1 2KO      -0.828900
     23 C23          8.7270     5.1810     1.1990 c3         1 2KO       0.229050
     24 C24          8.3410     5.8530     2.5290 c3         1 2KO      -0.122100
     25 C3C          6.6330     3.0420     0.8990 ca         1 2KO      -0.226000
     26 C4B          5.9410     1.8620     0.5970 ca         1 2KO       0.179100
     27 O1B          5.6580     0.9890     1.6200 os         1 2KO      -0.244200
     28 C1A          4.8660    -0.1210     1.4490 ca         1 2KO       0.179100
     29 C6A          4.5100    -0.8660     2.5810 ca         1 2KO      -0.226000
     30 C5A          3.6920    -2.0020     2.4620 ca         1 2KO       0.372000
     31 N1A          3.3330    -2.7560     3.6060 nh         1 2KO      -0.828900
     32 C21          4.2890    -2.9860     4.7160 c3         1 2KO       0.229050
     33 C22          5.5670    -3.7210     4.2770 c3         1 2KO      -0.122100
     34 C4A          3.2350    -2.3770     1.1860 ca         1 2KO      -0.217000
     35 C3A          3.5900    -1.6360     0.0480 ca         1 2KO      -0.025000
     36 C2A          4.4120    -0.5010     0.1740 ca         1 2KO      -0.196800
     37 C3P          6.9490    -0.9680    -1.5770 ca         1 2KO      -0.101000
     38 C4P          7.7570    -1.8010    -2.3660 ca         1 2KO      -0.091000
     39 C5P          7.2840    -2.2680    -3.6010 ca         1 2KO      -0.124000
     40 C6P          6.0060    -1.8970    -4.0460 ca         1 2KO      -0.072000
     41 O4           0.8400    -3.3730    -3.0650 os         1 2KO      -0.437000
     42 O7          -0.6190    -4.0980    -0.6290 os         1 2KO      -0.436000
     43 O0A         -2.8610    -3.5250     1.2220 os         1 2KO      -0.452000
     44 C0B         -3.7740    -2.5870     1.8160 c3         1 2KO       0.143600
     45 C0C         -5.2020    -3.0100     1.4320 c3         1 2KO       0.075600
     46 N3T         -6.2280    -2.1120     1.9800 na         1 2KO       0.121800
     47 C4T         -6.7530    -0.9890     1.3920 cc         1 2KO      -0.183000
     48 C5T         -7.6520    -0.5380     2.3180 cd         1 2KO       0.194300
     49 N1T         -7.6370    -1.3780     3.4140 nd         1 2KO      -0.352000
     50 N2T         -6.7720    -2.3360     3.2100 nc         1 2KO      -0.206800
     51 O1M         -9.0420     0.8270     0.8890 os         1 2KO      -0.493000
     52 C1M         -9.9010     1.9580     0.6460 c6         1 2KO       0.353300
     53 O5M         -9.1440     3.1770     0.8250 os         1 2KO      -0.453000
     54 C5M         -8.0260     3.3390    -0.0940 c6         1 2KO       0.171300
     55 C6M         -7.2710     4.6580     0.2770 c3         1 2KO       0.169600
     56 O6M         -6.8240     4.6990     1.6490 oh         1 2KO      -0.715000
     57 C4M         -8.5360     3.3410    -1.5690 c6         1 2KO       0.146300
     58 O4M         -7.4540     3.4350    -2.5190 oh         1 2KO      -0.725000
     59 C3M         -9.3660     2.0480    -1.8420 c6         1 2KO       0.143300
     60 O3M         -9.9160     2.0830    -3.1720 oh         1 2KO      -0.652000
     61 C2M        -10.5150     1.9020    -0.8000 c6         1 2KO       0.124300
     62 O2M        -11.4990     2.9450    -1.0340 oh         1 2KO      -0.691000
     63 H1           0.6160    -5.4130    -3.4760 h1         1 2KO       0.030200
     64 H2          -0.9070    -4.5330    -3.2080 h1         1 2KO       0.030200
     65 H3          -0.0450    -2.8020    -4.8750 h1         1 2KO       0.031700
     66 H4           1.5050    -3.6610    -5.0370 h1         1 2KO       0.031700
     67 H5           1.6790    -1.1690    -5.4690 h1         1 2KO       0.059200
     68 H6           1.1600    -0.8740    -3.7930 h1         1 2KO       0.059200
     69 H7          -9.3750     0.5660     2.9450 h1         1 2KO       0.058200
     70 H8          -7.9600     1.5600     2.5360 h1         1 2KO       0.058200
     71 H9          -0.1780    -6.0380    -1.2780 h1         1 2KO       0.031200
     72 H10          1.2380    -4.9880    -1.0470 h1         1 2KO       0.031200
     73 H11          0.4190    -4.2660     1.1740 h1         1 2KO       0.030200
     74 H12         -0.9930    -5.3340     1.0300 h1         1 2KO       0.030200
     75 H13         -1.2780    -3.3050     2.5740 h1         1 2KO       0.035700
     76 H14         -1.1780    -2.2650     1.1360 h1         1 2KO       0.035700
     77 H15          1.2900    -2.8390     3.0340 h1         1 2KO       0.046450
     78 H16          1.5770    -3.0360     4.7560 h1         1 2KO       0.046450
     79 H17          2.4910    -5.3360     4.3710 hc         1 2KO       0.041533
     80 H18          0.8580    -5.1750     3.6940 hc         1 2KO       0.041533
     81 H19          2.2720    -5.1390     2.6180 hc         1 2KO       0.041533
     82 H20          7.5280     6.3650    -1.5540 h1         1 2KO       0.046450
     83 H21          7.9820     7.2420    -0.1020 h1         1 2KO       0.046450
     84 H22          5.6470     7.0300     0.7910 hc         1 2KO       0.041533
     85 H23          5.7060     7.8760    -0.7710 hc         1 2KO       0.041533
     86 H24          5.1620     6.1870    -0.6990 hc         1 2KO       0.041533
     87 H25          5.5440     2.3160    -2.7650 ha         1 2KO       0.123000
     88 H26          6.7620     4.3920    -2.2290 ha         1 2KO       0.113500
     89 H27          9.0590     4.1540     1.4060 h1         1 2KO       0.046450
     90 H28          9.5980     5.7040     0.7800 h1         1 2KO       0.046450
     91 H29          8.0790     6.9060     2.3730 hc         1 2KO       0.041533
     92 H30          7.4830     5.3470     2.9880 hc         1 2KO       0.041533
     93 H31          9.1810     5.8100     3.2320 hc         1 2KO       0.041533
     94 H32          6.9190     3.2340     1.9260 ha         1 2KO       0.126500
     95 H33          4.8660    -0.5450     3.5530 ha         1 2KO       0.126500
     96 H34          4.5630    -2.0300     5.1820 h1         1 2KO       0.046450
     97 H35          3.8100    -3.5840     5.5040 h1         1 2KO       0.046450
     98 H36          6.2200    -3.8940     5.1400 hc         1 2KO       0.041533
     99 H37          5.3190    -4.6920     3.8320 hc         1 2KO       0.041533
    100 H38          6.1250    -3.1330     3.5390 hc         1 2KO       0.041533
    101 H39          2.6130    -3.2580     1.0670 ha         1 2KO       0.113500
    102 H40          3.2300    -1.9490    -0.9310 ha         1 2KO       0.123000
    103 H42          7.3210    -0.6270    -0.6130 ha         1 2KO       0.127000
    104 H43          8.7460    -2.0900    -2.0170 ha         1 2KO       0.114000
    105 H44          7.9060    -2.9190    -4.2110 ha         1 2KO       0.114000
    106 H45          5.6460    -2.2660    -5.0050 ha         1 2KO       0.118000
    107 H46         -3.6740    -2.5850     2.9090 h1         1 2KO       0.040200
    108 H47         -3.5820    -1.5700     1.4470 h1         1 2KO       0.040200
    109 H48         -5.2960    -3.0200     0.3390 h1         1 2KO       0.081700
    110 H49         -5.3910    -4.0260     1.7980 h1         1 2KO       0.081700
    111 H50         -6.4690    -0.6190     0.4170 h4         1 2KO       0.173000
    112 H51        -10.7260     1.9380     1.3740 h2         1 2KO       0.070700
    113 H52         -7.3250     2.5020     0.0430 h1         1 2KO       0.061700
    114 H53         -6.4090     4.7610    -0.3970 h1         1 2KO       0.036700
    115 H54         -7.9430     5.5030     0.0740 h1         1 2KO       0.036700
    116 H55         -6.4290     5.5900     1.7960 ho         1 2KO       0.503000
    117 H56         -9.2050     4.2080    -1.6870 h1         1 2KO       0.071700
    118 H57         -7.8340     3.1100    -3.3720 ho         1 2KO       0.522000
    119 H58         -8.6970     1.1800    -1.7400 h1         1 2KO       0.056700
    120 H59        -10.7950     2.5150    -3.0590 ho         1 2KO       0.448000
    121 H60        -10.9810     0.9140    -0.9320 h1         1 2KO       0.049700
    122 H61        -12.2290     2.8170    -0.3840 ho         1 2KO       0.504000
    123 H62          3.8730     0.5890    -1.5550 hc         1 2KO       0.081700
@<TRIPOS>BOND
     1     1     5 1   
     2     1    41 1   
     3     1    63 1   
     4     1    64 1   
     5     2     3 1   
     6     2    41 1   
     7     2    65 1   
     8     2    66 1   
     9     3    12 1   
    10     3    67 1   
    11     3    68 1   
    12     4    48 1   
    13     4    51 1   
    14     4    69 1   
    15     4    70 1   
    16     5    42 1   
    17     5    71 1   
    18     5    72 1   
    19     6     7 1   
    20     6    42 1   
    21     6    73 1   
    22     6    74 1   
    23     7    43 1   
    24     7    75 1   
    25     7    76 1   
    26     8     9 1   
    27     8    31 1   
    28     8    77 1   
    29     8    78 1   
    30     9    79 1   
    31     9    80 1   
    32     9    81 1   
    33    10    11 1   
    34    10    22 1   
    35    10    82 1   
    36    10    83 1   
    37    11    84 1   
    38    11    85 1   
    39    11    86 1   
    40    12    14 1   
    41    13    14 2   
    42    14    15 1   
    43    15    16 ar  
    44    15    40 ar  
    45    16    17 1   
    46    16    37 ar  
    47    17    18 1   
    48    17    36 1   
    49    17   123 1   
    50    18    19 ar  
    51    18    26 ar  
    52    19    20 ar  
    53    19    87 1   
    54    20    21 ar  
    55    20    88 1   
    56    21    22 1   
    57    21    25 ar  
    58    22    23 1   
    59    23    24 1   
    60    23    89 1   
    61    23    90 1   
    62    24    91 1   
    63    24    92 1   
    64    24    93 1   
    65    25    26 ar  
    66    25    94 1   
    67    26    27 1   
    68    27    28 1   
    69    28    29 ar  
    70    28    36 ar  
    71    29    30 ar  
    72    29    95 1   
    73    30    31 1   
    74    30    34 ar  
    75    31    32 1   
    76    32    33 1   
    77    32    96 1   
    78    32    97 1   
    79    33    98 1   
    80    33    99 1   
    81    33   100 1   
    82    34    35 ar  
    83    34   101 1   
    84    35    36 ar  
    85    35   102 1   
    86    37    38 ar  
    87    37   103 1   
    88    38    39 ar  
    89    38   104 1   
    90    39    40 ar  
    91    39   105 1   
    92    40   106 1   
    93    43    44 1   
    94    44    45 1   
    95    44   107 1   
    96    44   108 1   
    97    45    46 1   
    98    45   109 1   
    99    45   110 1   
   100    46    47 1   
   101    46    50 1   
   102    47    48 2   
   103    47   111 1   
   104    48    49 1   
   105    49    50 2   
   106    51    52 1   
   107    52    53 1   
   108    52    61 1   
   109    52   112 1   
   110    53    54 1   
   111    54    55 1   
   112    54    57 1   
   113    54   113 1   
   114    55    56 1   
   115    55   114 1   
   116    55   115 1   
   117    56   116 1   
   118    57    58 1   
   119    57    59 1   
   120    57   117 1   
   121    58   118 1   
   122    59    60 1   
   123    59    61 1   
   124    59   119 1   
   125    60   120 1   
   126    61    62 1   
   127    61   121 1   
   128    62   122 1   
@<TRIPOS>SUBSTRUCTURE
     1 2KO         1 TEMP              0 ****  ****    0 ROOT
