@<TRIPOS>MOLECULE
2KO
  123   128     1     0     0
SMALL
abcg2


@<TRIPOS>ATOM
      1 C5           0.1470    -3.8800    -3.2420 c3         1 2KO       0.162600
      2 C3           0.9350    -2.1350    -4.5920 c3         1 2KO       0.157600
      3 C2           1.8100    -0.9110    -4.5540 c3         1 2KO       0.162600
      4 C1          -8.4490     0.5200     2.3020 c3         1 2KO       0.145300
      5 C6           0.1980    -4.4280    -1.8390 c3         1 2KO       0.159600
      6 C8          -0.5720    -4.0930     0.3410 c3         1 2KO       0.158600
      7 C9          -1.4470    -3.2100     1.1920 c3         1 2KO       0.163600
      8 C11          1.7660    -2.9950     3.5210 c3         1 2KO       0.229050
      9 C12          2.2070    -4.3760     3.0500 c3         1 2KO      -0.122100
     10 C13          9.2790     5.4520    -0.5940 c3         1 2KO       0.229050
     11 C14          8.2900     6.6030    -0.7450 c3         1 2KO      -0.122100
     12 O1           3.0850    -1.3240    -4.0480 os         1 2KO      -0.432100
     13 O7P          3.8330     0.7790    -3.9640 o          1 2KO      -0.488000
     14 C7P          3.9860    -0.4010    -3.7660 c          1 2KO       0.609700
     15 C1P          5.2070    -1.0170    -3.1740 ca         1 2KO      -0.125600
     16 C2P          5.7130    -0.5950    -1.9430 ca         1 2KO      -0.018300
     17 C2C          5.0240     0.4470    -1.0720 c6         1 2KO       0.105200
     18 C1C          5.9820     1.5380    -0.6800 ca         1 2KO      -0.196800
     19 C6C          6.4650     2.4550    -1.6080 ca         1 2KO      -0.025000
     20 C5C          7.3910     3.4240    -1.2830 ca         1 2KO      -0.217000
     21 C4C          7.9090     3.5180     0.0290 ca         1 2KO       0.372000
     22 N1C          8.8810     4.4280     0.3520 nh         1 2KO      -0.828900
     23 C23          9.3830     4.5350     1.7080 c3         1 2KO       0.229050
     24 C24          8.5100     5.3490     2.6570 c3         1 2KO      -0.122100
     25 C3C          7.3970     2.6180     0.9770 ca         1 2KO      -0.226000
     26 C4B          6.4640     1.6570     0.6130 ca         1 2KO       0.179100
     27 O1B          6.0490     0.8350     1.6180 os         1 2KO      -0.244200
     28 C1A          4.9810     0.0140     1.4160 ca         1 2KO       0.179100
     29 C6A          4.4780    -0.5950     2.5570 ca         1 2KO      -0.226000
     30 C5A          3.3660    -1.4480     2.4890 ca         1 2KO       0.372000
     31 N1A          2.8250    -2.0110     3.6150 nh         1 2KO      -0.828900
     32 C21          3.4500    -1.8240     4.9110 c3         1 2KO       0.229050
     33 C22          4.6590    -2.7150     5.1710 c3         1 2KO      -0.122100
     34 C4A          2.8120    -1.6680     1.2080 ca         1 2KO      -0.217000
     35 C3A          3.3440    -1.0530     0.0930 ca         1 2KO      -0.025000
     36 C2A          4.4390    -0.1980     0.1580 ca         1 2KO      -0.196800
     37 C3P          6.8670    -1.2110    -1.4620 ca         1 2KO      -0.101000
     38 C4P          7.5110    -2.2020    -2.1810 ca         1 2KO      -0.091000
     39 C5P          6.9990    -2.6170    -3.4050 ca         1 2KO      -0.124000
     40 C6P          5.8410    -2.0360    -3.8890 ca         1 2KO      -0.072000
     41 O4           0.7960    -2.6340    -3.2880 os         1 2KO      -0.437000
     42 O7          -0.5800    -3.6300    -0.9830 os         1 2KO      -0.436000
     43 O0A         -2.7860    -3.3670     0.7950 os         1 2KO      -0.452000
     44 C0B         -3.6790    -2.5590     1.5110 c3         1 2KO       0.143600
     45 C0C         -5.0790    -2.9500     1.0620 c3         1 2KO       0.075600
     46 N3T         -6.0830    -2.1280     1.7040 na         1 2KO       0.121800
     47 C4T         -6.6750    -1.0190     1.2350 cc         1 2KO      -0.183000
     48 C5T         -7.5090    -0.6300     2.2530 cd         1 2KO       0.194300
     49 N1T         -7.3680    -1.5150     3.2610 nd         1 2KO      -0.352000
     50 N2T         -6.5030    -2.4090     2.9250 nc         1 2KO      -0.206800
     51 O1M         -9.2700     0.4510     1.1510 os         1 2KO      -0.493000
     52 C1M        -10.2810     1.4080     1.0950 c6         1 2KO       0.353300
     53 O5M         -9.7920     2.7160     1.0600 os         1 2KO      -0.453000
     54 C5M         -8.9900     3.0390    -0.0660 c6         1 2KO       0.171300
     55 C6M         -8.5430     4.4750     0.1040 c3         1 2KO       0.169600
     56 O6M         -7.7630     4.5720     1.2720 oh         1 2KO      -0.715000
     57 C4M         -9.7830     2.8340    -1.3570 c6         1 2KO       0.146300
     58 O4M         -8.9160     3.0810    -2.4380 oh         1 2KO      -0.725000
     59 C3M        -10.3180     1.4060    -1.3970 c6         1 2KO       0.143300
     60 O3M        -11.0720     1.2640    -2.5770 oh         1 2KO      -0.652000
     61 C2M        -11.1310     1.0990    -0.1410 c6         1 2KO       0.124300
     62 O2M        -12.2840     1.9020    -0.1490 oh         1 2KO      -0.691000
     63 H1           0.6420    -4.6050    -3.9030 h1         1 2KO       0.030200
     64 H2          -0.8960    -3.8010    -3.5800 h1         1 2KO       0.030200
     65 H3          -0.0320    -1.8510    -5.0280 h1         1 2KO       0.031700
     66 H4           1.3760    -2.8890    -5.2590 h1         1 2KO       0.031700
     67 H5           1.9110    -0.4960    -5.5590 h1         1 2KO       0.059200
     68 H6           1.3820    -0.1420    -3.9070 h1         1 2KO       0.059200
     69 H7          -9.0470     0.4650     3.2200 h1         1 2KO       0.058200
     70 H8          -7.8960     1.4650     2.3310 h1         1 2KO       0.058200
     71 H9          -0.1760    -5.4610    -1.8630 h1         1 2KO       0.031200
     72 H10          1.2420    -4.4730    -1.4980 h1         1 2KO       0.031200
     73 H11          0.4470    -4.0790     0.7570 h1         1 2KO       0.030200
     74 H12         -0.9170    -5.1350     0.4030 h1         1 2KO       0.030200
     75 H13         -1.3150    -3.4970     2.2450 h1         1 2KO       0.035700
     76 H14         -1.1270    -2.1620     1.1010 h1         1 2KO       0.035700
     77 H15          0.9660    -2.6130     2.8780 h1         1 2KO       0.046450
     78 H16          1.3160    -3.0810     4.5100 h1         1 2KO       0.046450
     79 H17          2.9470    -4.8050     3.7260 hc         1 2KO       0.041533
     80 H18          1.3530    -5.0540     3.0210 hc         1 2KO       0.041533
     81 H19          2.6460    -4.3480     2.0520 hc         1 2KO       0.041533
     82 H20          9.4730     4.9980    -1.5690 h1         1 2KO       0.046450
     83 H21         10.2410     5.8450    -0.2620 h1         1 2KO       0.046450
     84 H22          8.1570     7.1340     0.1970 hc         1 2KO       0.041533
     85 H23          8.6570     7.3180    -1.4830 hc         1 2KO       0.041533
     86 H24          7.3110     6.2560    -1.0770 hc         1 2KO       0.041533
     87 H25          6.1040     2.4020    -2.6290 ha         1 2KO       0.123000
     88 H26          7.7120     4.1010    -2.0610 ha         1 2KO       0.113500
     89 H27          9.5480     3.5350     2.1150 h1         1 2KO       0.046450
     90 H28         10.3720     4.9900     1.6510 h1         1 2KO       0.046450
     91 H29          8.4180     6.3820     2.3220 hc         1 2KO       0.041533
     92 H30          7.5070     4.9330     2.7480 hc         1 2KO       0.041533
     93 H31          8.9550     5.3620     3.6530 hc         1 2KO       0.041533
     94 H32          7.7060     2.6470     2.0120 ha         1 2KO       0.126500
     95 H33          4.9700    -0.3790     3.4940 ha         1 2KO       0.126500
     96 H34          3.7260    -0.7740     5.0340 h1         1 2KO       0.046450
     97 H35          2.6910    -2.0130     5.6710 h1         1 2KO       0.046450
     98 H36          5.0980    -2.4800     6.1410 hc         1 2KO       0.041533
     99 H37          4.3780    -3.7680     5.1790 hc         1 2KO       0.041533
    100 H38          5.4310    -2.5790     4.4130 hc         1 2KO       0.041533
    101 H39          1.9630    -2.3200     1.0720 ha         1 2KO       0.113500
    102 H40          2.8900    -1.2580    -0.8720 ha         1 2KO       0.123000
    103 H42          7.2690    -0.9130    -0.5010 ha         1 2KO       0.127000
    104 H43          8.4110    -2.6560    -1.7860 ha         1 2KO       0.114000
    105 H44          7.4960    -3.3910    -3.9750 ha         1 2KO       0.114000
    106 H45          5.4380    -2.3610    -4.8390 ha         1 2KO       0.118000
    107 H46         -3.5790    -2.7100     2.5940 h1         1 2KO       0.040200
    108 H47         -3.5050    -1.4920     1.3110 h1         1 2KO       0.040200
    109 H48         -5.1840    -2.8230    -0.0140 h1         1 2KO       0.081700
    110 H49         -5.2860    -3.9900     1.3060 h1         1 2KO       0.081700
    111 H50         -6.4730    -0.6150     0.2580 h4         1 2KO       0.173000
    112 H51        -10.9010     1.3630     2.0030 h2         1 2KO       0.070700
    113 H52         -8.0980     2.3950    -0.1000 h1         1 2KO       0.061700
    114 H53         -7.9780     4.7690    -0.7860 h1         1 2KO       0.036700
    115 H54         -9.4310     5.1220     0.1510 h1         1 2KO       0.036700
    116 H55         -7.3970     5.4600     1.3120 ho         1 2KO       0.503000
    117 H56        -10.6300     3.5360    -1.3650 h1         1 2KO       0.071700
    118 H57         -9.4020     2.9050    -3.2500 ho         1 2KO       0.522000
    119 H58         -9.4520     0.7300    -1.4070 h1         1 2KO       0.056700
    120 H59        -11.1190     0.3300    -2.8030 ho         1 2KO       0.448000
    121 H60        -11.3890     0.0320    -0.1280 h1         1 2KO       0.049700
    122 H61        -12.8780     1.5890     0.5400 ho         1 2KO       0.504000
    123 H62          4.2070     0.9020    -1.6320 hc         1 2KO       0.081700
@<TRIPOS>BOND
     1     1     5 1   
     2     1    41 1   
     3     1    63 1   
     4     1    64 1   
     5     2     3 1   
     6     2    41 1   
     7     2    65 1   
     8     2    66 1   
     9     3    12 1   
    10     3    67 1   
    11     3    68 1   
    12     4    48 1   
    13     4    51 1   
    14     4    69 1   
    15     4    70 1   
    16     5    42 1   
    17     5    71 1   
    18     5    72 1   
    19     6     7 1   
    20     6    42 1   
    21     6    73 1   
    22     6    74 1   
    23     7    43 1   
    24     7    75 1   
    25     7    76 1   
    26     8     9 1   
    27     8    31 1   
    28     8    77 1   
    29     8    78 1   
    30     9    79 1   
    31     9    80 1   
    32     9    81 1   
    33    10    11 1   
    34    10    22 1   
    35    10    82 1   
    36    10    83 1   
    37    11    84 1   
    38    11    85 1   
    39    11    86 1   
    40    12    14 1   
    41    13    14 2   
    42    14    15 1   
    43    15    16 ar  
    44    15    40 ar  
    45    16    17 1   
    46    16    37 ar  
    47    17    18 1   
    48    17    36 1   
    49    17   123 1   
    50    18    19 ar  
    51    18    26 ar  
    52    19    20 ar  
    53    19    87 1   
    54    20    21 ar  
    55    20    88 1   
    56    21    22 1   
    57    21    25 ar  
    58    22    23 1   
    59    23    24 1   
    60    23    89 1   
    61    23    90 1   
    62    24    91 1   
    63    24    92 1   
    64    24    93 1   
    65    25    26 ar  
    66    25    94 1   
    67    26    27 1   
    68    27    28 1   
    69    28    29 ar  
    70    28    36 ar  
    71    29    30 ar  
    72    29    95 1   
    73    30    31 1   
    74    30    34 ar  
    75    31    32 1   
    76    32    33 1   
    77    32    96 1   
    78    32    97 1   
    79    33    98 1   
    80    33    99 1   
    81    33   100 1   
    82    34    35 ar  
    83    34   101 1   
    84    35    36 ar  
    85    35   102 1   
    86    37    38 ar  
    87    37   103 1   
    88    38    39 ar  
    89    38   104 1   
    90    39    40 ar  
    91    39   105 1   
    92    40   106 1   
    93    43    44 1   
    94    44    45 1   
    95    44   107 1   
    96    44   108 1   
    97    45    46 1   
    98    45   109 1   
    99    45   110 1   
   100    46    47 1   
   101    46    50 1   
   102    47    48 2   
   103    47   111 1   
   104    48    49 1   
   105    49    50 2   
   106    51    52 1   
   107    52    53 1   
   108    52    61 1   
   109    52   112 1   
   110    53    54 1   
   111    54    55 1   
   112    54    57 1   
   113    54   113 1   
   114    55    56 1   
   115    55   114 1   
   116    55   115 1   
   117    56   116 1   
   118    57    58 1   
   119    57    59 1   
   120    57   117 1   
   121    58   118 1   
   122    59    60 1   
   123    59    61 1   
   124    59   119 1   
   125    60   120 1   
   126    61    62 1   
   127    61   121 1   
   128    62   122 1   
@<TRIPOS>SUBSTRUCTURE
     1 2KO         1 TEMP              0 ****  ****    0 ROOT
