@<TRIPOS>MOLECULE
2KP
   35    35     1     0     0
SMALL
bcc


@<TRIPOS>ATOM
      1 N           11.8070    19.5970    23.3210 n8         1 2KP      -0.897800
      2 CA          10.8910    18.6410    22.7070 c3         1 2KP       0.026500
      3 C            9.4130    18.9990    23.0120 c          1 2KP       0.927600
      4 O            9.1920    20.0900    23.5780 o          1 2KP      -0.836800
      5 CB          11.2250    17.2190    23.1620 c3         1 2KP      -0.053400
      6 CG          12.6230    16.7780    22.7500 c3         1 2KP      -0.072400
      7 CD          13.0400    15.4160    23.2970 c3         1 2KP      -0.093400
      8 CE          13.2520    15.3740    24.8100 c3         1 2KP       0.100000
      9 NZ          14.2760    16.3000    25.2470 ns         1 2KP      -0.567900
     10 C02         14.0370    17.4270    25.9350 c          1 2KP       0.673700
     11 O03         12.9370    17.7600    26.3530 o          1 2KP      -0.553100
     12 C04         15.2310    18.3000    26.1700 ca         1 2KP      -0.126600
     13 C05         15.0460    19.6790    26.1700 ca         1 2KP      -0.092000
     14 C06         16.1100    20.5370    26.3960 ca         1 2KP      -0.119000
     15 C07         17.3660    20.0020    26.6480 ca         1 2KP      -0.010900
     16 BR          18.8180    21.1610    26.9720 br         1 2KP      -0.120100
     17 C09         17.5710    18.6310    26.6690 ca         1 2KP      -0.119000
     18 C10         16.4980    17.7850    26.4240 ca         1 2KP      -0.092000
     19 OXT          8.5600    18.1710    22.6360 o          1 2KP      -0.836800
     20 H1          12.6020    19.7580    22.7200 hn         1 2KP       0.325300
     21 H2          11.3180    20.4780    23.4120 hn         1 2KP       0.325300
     22 H4          10.9730    18.6580    21.6070 h1         1 2KP      -0.005300
     23 H5          11.1200    17.1760    24.2500 hc         1 2KP       0.050700
     24 H6          10.4930    16.5230    22.7460 hc         1 2KP       0.050700
     25 H7          12.6720    16.7440    21.6570 hc         1 2KP       0.027700
     26 H8          13.3590    17.5260    23.0570 hc         1 2KP       0.027700
     27 H9          12.2870    14.6620    23.0440 hc         1 2KP       0.026700
     28 H10         13.9650    15.0970    22.8080 hc         1 2KP       0.026700
     29 H11         12.3340    15.6120    25.3430 h1         1 2KP       0.053700
     30 H12         13.5420    14.3640    25.1080 h1         1 2KP       0.053700
     31 H13         15.1950    16.1660    24.8550 hn         1 2KP       0.298500
     32 H14         14.0660    20.0940    25.9730 ha         1 2KP       0.156000
     33 H15         15.9530    21.6070    26.3760 ha         1 2KP       0.143500
     34 H16         18.5470    18.2140    26.8780 ha         1 2KP       0.143500
     35 H17         16.6660    16.7160    26.4590 ha         1 2KP       0.156000
@<TRIPOS>BOND
     1     1     2 1   
     2     1    20 1   
     3     1    21 1   
     4     2     3 1   
     5     2     5 1   
     6     2    22 1   
     7     3     4 1   
     8     3    19 1   
     9     5     6 1   
    10     5    23 1   
    11     5    24 1   
    12     6     7 1   
    13     6    25 1   
    14     6    26 1   
    15     7     8 1   
    16     7    27 1   
    17     7    28 1   
    18     8     9 1   
    19     8    29 1   
    20     8    30 1   
    21     9    10 1   
    22     9    31 1   
    23    10    11 2   
    24    10    12 1   
    25    12    13 ar  
    26    12    18 ar  
    27    13    14 ar  
    28    13    32 1   
    29    14    15 ar  
    30    14    33 1   
    31    15    16 1   
    32    15    17 ar  
    33    17    18 ar  
    34    17    34 1   
    35    18    35 1   
@<TRIPOS>SUBSTRUCTURE
     1 2KP         1 TEMP              0 ****  ****    0 ROOT
