@<TRIPOS>MOLECULE
2KR
   42    45     1     0     0
SMALL
abcg2


@<TRIPOS>ATOM
      1 C01          4.0050    -3.1670    -1.3970 c3         1 2KR       0.168900
      2 O02          3.0460    -2.2380    -0.8890 os         1 2KR      -0.410600
      3 C03          3.5000    -1.0670    -0.5190 cc         1 2KR       0.653100
      4 N04          4.7270    -0.6430    -0.5760 nd         1 2KR      -0.655100
      5 C05          4.6680     0.6360    -0.0750 ca         1 2KR       0.063400
      6 C06          5.6380     1.6010     0.1290 ca         1 2KR      -0.035000
      7 C07          5.2120     2.8100     0.6730 ca         1 2KR      -0.180000
      8 C08          3.8690     3.0050     0.9860 ca         1 2KR       0.334900
      9 N09          2.9180     2.0870     0.7970 nb         1 2KR      -0.651000
     10 C10          3.3480     0.9610     0.2840 ca         1 2KR       0.350500
     11 N11          2.6060    -0.1650    -0.0130 na         1 2KR      -0.204100
     12 C12          1.2160    -0.3460     0.1810 ca         1 2KR      -0.027200
     13 C13          0.7500    -1.2610     1.1170 ca         1 2KR      -0.056500
     14 C14         -0.6060    -1.4220     1.3080 ca         1 2KR      -0.159500
     15 C15         -1.5390    -0.6610     0.5850 ca         1 2KR       0.331000
     16 N16         -2.8710    -0.8910     0.8670 nu         1 2KR      -0.941900
     17 C17         -4.0230    -0.3420     0.3530 ca         1 2KR       0.615900
     18 C18         -5.2510    -0.7670     0.8910 ca         1 2KR      -0.222000
     19 C19         -6.4100    -0.2310     0.3840 ca         1 2KR      -0.037000
     20 C20         -6.3620     0.7180    -0.6440 ca         1 2KR      -0.172300
     21 C21         -7.6040     1.3210    -1.2240 c3         1 2KR      -0.033800
     22 C22         -5.0990     1.0600    -1.0900 ca         1 2KR       0.382900
     23 N23         -3.9610     0.5540    -0.6160 nb         1 2KR      -0.729000
     24 C24         -1.0580     0.2630    -0.3500 ca         1 2KR      -0.159500
     25 C25          0.3070     0.4070    -0.5450 ca         1 2KR      -0.056500
     26 H1           4.4660    -2.7940    -2.3110 h1         1 2KR       0.054033
     27 H2           4.7800    -3.3730    -0.6590 h1         1 2KR       0.054033
     28 H3           3.4530    -4.0760    -1.6110 h1         1 2KR       0.054033
     29 H4           6.6770     1.4280    -0.1190 ha         1 2KR       0.131000
     30 H5           5.9190     3.6060     0.8590 ha         1 2KR       0.122000
     31 H6           3.5450     3.9480     1.4090 h4         1 2KR       0.020100
     32 H7           1.4460    -1.8470     1.7030 ha         1 2KR       0.125500
     33 H8          -0.9550    -2.1420     2.0390 ha         1 2KR       0.132500
     34 H9          -3.0270    -1.5760     1.5910 hn         1 2KR       0.494000
     35 H10         -5.2820    -1.5000     1.6880 ha         1 2KR       0.121000
     36 H11         -7.3650    -0.5460     0.7880 ha         1 2KR       0.117000
     37 H12         -8.2090     1.8050    -0.4560 hc         1 2KR       0.042033
     38 H13         -7.3690     2.0690    -1.9800 hc         1 2KR       0.042033
     39 H14         -8.2320     0.5620    -1.6950 hc         1 2KR       0.042033
     40 H15         -4.9890     1.7920    -1.8850 h4         1 2KR       0.018100
     41 H16         -1.7440     0.8610    -0.9260 ha         1 2KR       0.132500
     42 H17          0.6620     1.1190    -1.2790 ha         1 2KR       0.125500
@<TRIPOS>BOND
     1     1     2 1   
     2     1    26 1   
     3     1    27 1   
     4     1    28 1   
     5     2     3 1   
     6     3     4 2   
     7     3    11 1   
     8     4     5 1   
     9     5     6 ar  
    10     5    10 ar  
    11     6     7 ar  
    12     6    29 1   
    13     7     8 ar  
    14     7    30 1   
    15     8     9 ar  
    16     8    31 1   
    17     9    10 ar  
    18    10    11 1   
    19    11    12 1   
    20    12    13 ar  
    21    12    25 ar  
    22    13    14 ar  
    23    13    32 1   
    24    14    15 ar  
    25    14    33 1   
    26    15    16 1   
    27    15    24 ar  
    28    16    17 1   
    29    16    34 1   
    30    17    18 ar  
    31    17    23 ar  
    32    18    19 ar  
    33    18    35 1   
    34    19    20 ar  
    35    19    36 1   
    36    20    21 1   
    37    20    22 ar  
    38    21    37 1   
    39    21    38 1   
    40    21    39 1   
    41    22    23 ar  
    42    22    40 1   
    43    24    25 ar  
    44    24    41 1   
    45    25    42 1   
@<TRIPOS>SUBSTRUCTURE
     1 2KR         1 TEMP              0 ****  ****    0 ROOT
