@<TRIPOS>MOLECULE
2KR
   42    45     1     0     0
SMALL
No Charge or Current Charge


@<TRIPOS>ATOM
      1 C01          3.8730    -3.1620    -1.6490 c3         1 2KR       0.168900
      2 O02          2.9460    -2.2100    -1.0960 os         1 2KR      -0.410600
      3 C03          3.3950    -1.0110    -0.6100 cc         1 2KR       0.653100
      4 N04          4.6920    -0.6650    -0.6420 nd         1 2KR      -0.655100
      5 C05          4.6530     0.6060    -0.0520 ca         1 2KR       0.063400
      6 C06          5.7450     1.4510     0.1860 ca         1 2KR      -0.035000
      7 C07          5.4720     2.6890     0.8010 ca         1 2KR      -0.180000
      8 C08          4.1430     3.0180     1.1440 ca         1 2KR       0.334900
      9 N09          3.0910     2.1940     0.9090 nb         1 2KR      -0.651000
     10 C10          3.3740     1.0120     0.3170 ca         1 2KR       0.350500
     11 N11          2.5830    -0.0310    -0.0600 na         1 2KR      -0.204100
     12 C12          1.2210    -0.1870     0.2070 ca         1 2KR      -0.027200
     13 C13          0.7520    -1.3070     0.9200 ca         1 2KR      -0.056500
     14 C14         -0.6220    -1.4530     1.1860 ca         1 2KR      -0.159500
     15 C15         -1.5440    -0.4930     0.7380 ca         1 2KR       0.331000
     16 N16         -2.8950    -0.6720     1.0460 nu         1 2KR      -0.941900
     17 C17         -4.0820    -0.2650     0.4750 ca         1 2KR       0.615900
     18 C18         -5.2880    -0.4080     1.1720 ca         1 2KR      -0.222000
     19 C19         -6.4860    -0.0180     0.5530 ca         1 2KR      -0.037000
     20 C20         -6.4160     0.4950    -0.7530 ca         1 2KR      -0.172300
     21 C21         -7.6780     0.9320    -1.4830 c3         1 2KR      -0.033800
     22 C22         -5.1530     0.5830    -1.3740 ca         1 2KR       0.382900
     23 N23         -4.0020     0.2060    -0.7740 nb         1 2KR      -0.729000
     24 C24         -1.0710     0.6360     0.0440 ca         1 2KR      -0.159500
     25 C25          0.3010     0.7880    -0.2240 ca         1 2KR      -0.056500
     26 H1           4.4030    -2.7380    -2.5120 h1         1 2KR       0.054033
     27 H2           4.6150    -3.4670    -0.8990 h1         1 2KR       0.054033
     28 H3           3.3410    -4.0610    -1.9850 h1         1 2KR       0.054033
     29 H4           6.7550     1.1600    -0.0910 ha         1 2KR       0.131000
     30 H5           6.2760     3.3890     1.0130 ha         1 2KR       0.122000
     31 H6           3.9140     3.9710     1.6210 h4         1 2KR       0.020100
     32 H7           1.4480    -2.0650     1.2750 ha         1 2KR       0.125500
     33 H8          -0.9680    -2.3220     1.7370 ha         1 2KR       0.132500
     34 H9          -3.0540    -1.2950     1.8320 hn         1 2KR       0.494000
     35 H10         -5.2990    -0.8110     2.1790 ha         1 2KR       0.121000
     36 H11         -7.4380    -0.1130     1.0710 ha         1 2KR       0.117000
     37 H12         -8.3780     1.4310    -0.8020 hc         1 2KR       0.042033
     38 H13         -7.4510     1.6350    -2.2940 hc         1 2KR       0.042033
     39 H14         -8.1950     0.0700    -1.9220 hc         1 2KR       0.042033
     40 H15         -5.0600     0.9670    -2.3890 h4         1 2KR       0.018100
     41 H16         -1.7590     1.4100    -0.2790 ha         1 2KR       0.132500
     42 H17          0.6490     1.6660    -0.7640 ha         1 2KR       0.125500
@<TRIPOS>BOND
     1     1     2 1   
     2     1    26 1   
     3     1    27 1   
     4     1    28 1   
     5     2     3 1   
     6     3     4 2   
     7     3    11 1   
     8     4     5 1   
     9     5     6 ar  
    10     5    10 ar  
    11     6     7 ar  
    12     6    29 1   
    13     7     8 ar  
    14     7    30 1   
    15     8     9 ar  
    16     8    31 1   
    17     9    10 ar  
    18    10    11 1   
    19    11    12 1   
    20    12    13 ar  
    21    12    25 ar  
    22    13    14 ar  
    23    13    32 1   
    24    14    15 ar  
    25    14    33 1   
    26    15    16 1   
    27    15    24 ar  
    28    16    17 1   
    29    16    34 1   
    30    17    18 ar  
    31    17    23 ar  
    32    18    19 ar  
    33    18    35 1   
    34    19    20 ar  
    35    19    36 1   
    36    20    21 1   
    37    20    22 ar  
    38    21    37 1   
    39    21    38 1   
    40    21    39 1   
    41    22    23 ar  
    42    22    40 1   
    43    24    25 ar  
    44    24    41 1   
    45    25    42 1   
@<TRIPOS>SUBSTRUCTURE
     1 2KR         1 TEMP              0 ****  ****    0 ROOT
