@<TRIPOS>MOLECULE
2KS
   51    53     1     0     0
SMALL
No Charge or Current Charge


@<TRIPOS>ATOM
      1 C1          -3.2350     0.3310     0.0430 c6         1 2KS       0.010300
      2 C2          -4.7070    -0.1970     0.0030 ca         1 2KS      -0.046300
      3 C3          -2.4720    -0.0990     1.3500 c6         1 2KS      -0.068900
      4 C11         -6.6270    -1.3610     1.0030 ca         1 2KS      -0.110000
      5 C12         -6.8200    -0.4420    -1.2310 ca         1 2KS      -0.110000
      6 C13         -0.2330    -0.3500     0.1340 c6         1 2KS       0.173300
      7 C14         -7.3860    -1.1370    -0.1540 ca         1 2KS      -0.113000
      8 C17          3.4360    -0.0670    -0.4750 c2         1 2KS      -0.206200
      9 C18          4.5520    -0.8330    -0.4920 ce         1 2KS      -0.152200
     10 C19          5.9400    -0.3780    -0.1780 ca         1 2KS      -0.051800
     11 C20          6.2760     0.9890    -0.0580 ca         1 2KS      -0.098500
     12 C21          6.9520    -1.3440    -0.0050 ca         1 2KS      -0.098500
     13 C22          7.5950     1.3760     0.2360 ca         1 2KS      -0.112000
     14 C23          8.2710    -0.9570     0.2890 ca         1 2KS      -0.112000
     15 C24          8.5940     0.4040     0.4110 ca         1 2KS      -0.106000
     16 C4          -2.4500    -0.2860    -1.1680 c6         1 2KS      -0.068900
     17 C5          -3.2690     1.9030    -0.0880 c3         1 2KS       0.158800
     18 C6          -5.3030    -0.8970     1.0850 ca         1 2KS      -0.105500
     19 C7          -5.4960     0.0240    -1.1520 ca         1 2KS      -0.105500
     20 C8          -0.9640     0.2690     1.3470 c6         1 2KS      -0.090400
     21 C9          -0.9360     0.0590    -1.1880 c6         1 2KS      -0.090400
     22 N10         -4.0140     2.6130     0.9780 n8         1 2KS      -0.992200
     23 O15          1.1500     0.0610     0.1580 os         1 2KS      -0.459000
     24 H1          -2.9450     0.3440     2.2360 hc         1 2KS       0.046450
     25 H2          -2.5480    -1.1880     1.4740 hc         1 2KS       0.046450
     26 H3          -7.0660    -1.8970     1.8420 ha         1 2KS       0.108500
     27 H4          -7.4060    -0.2610    -2.1290 ha         1 2KS       0.108500
     28 H5          -0.2700    -1.4460     0.2300 h1         1 2KS       0.031700
     29 H6          -8.4110    -1.4970    -0.2150 ha         1 2KS       0.110000
     30 H7           1.7810    -0.2570    -1.8180 h1         1 2KS       0.027200
     31 H8           1.9930    -1.6420    -0.7190 h1         1 2KS       0.027200
     32 H9           3.4740     0.9890    -0.2140 ha         1 2KS       0.181000
     33 H10          4.4690    -1.8920    -0.7440 ha         1 2KS       0.169000
     34 H11          5.5260     1.7620    -0.1980 ha         1 2KS       0.111500
     35 H12          6.7170    -2.4020    -0.0960 ha         1 2KS       0.111500
     36 H13          7.8440     2.4310     0.3260 ha         1 2KS       0.112000
     37 H14          9.0430    -1.7120     0.4220 ha         1 2KS       0.112000
     38 H15          9.6140     0.7050     0.6380 ha         1 2KS       0.112000
     39 H16         -2.5620    -1.3790    -1.1480 hc         1 2KS       0.046450
     40 H17         -2.8900     0.0400    -2.1200 hc         1 2KS       0.046450
     41 H18         -2.2460     2.2990    -0.0980 h1         1 2KS       0.029700
     42 H19         -3.7240     2.1720    -1.0510 h1         1 2KS       0.029700
     43 H20         -4.7610    -1.0900     2.0050 ha         1 2KS       0.106500
     44 H21         -5.0900     0.5660    -2.0020 ha         1 2KS       0.106500
     45 H22         -0.8320     1.3580     1.3520 hc         1 2KS       0.048950
     46 H23         -0.5010    -0.0980     2.2730 hc         1 2KS       0.048950
     47 H24         -0.7900     1.1320    -1.3740 hc         1 2KS       0.048950
     48 H25         -0.4740    -0.4640    -2.0360 hc         1 2KS       0.048950
     49 H26         -3.5540     2.4350     1.8770 hn         1 2KS       0.391500
     50 H27         -3.9070     3.6250     0.8440 hn         1 2KS       0.391500
     51 C16          2.0400    -0.5470    -0.7920 c3         1 2KS       0.196800
@<TRIPOS>BOND
     1     1     2 1   
     2     1     3 1   
     3     1    16 1   
     4     1    17 1   
     5     2    18 ar  
     6     2    19 ar  
     7     3    20 1   
     8     3    24 1   
     9     3    25 1   
    10     4     7 ar  
    11     4    18 ar  
    12     4    26 1   
    13     5     7 ar  
    14     5    19 ar  
    15     5    27 1   
    16     6    20 1   
    17     6    21 1   
    18     6    23 1   
    19     6    28 1   
    20     7    29 1   
    21     8     9 2   
    22     8    32 1   
    23     8    51 1   
    24     9    10 1   
    25     9    33 1   
    26    10    11 ar  
    27    10    12 ar  
    28    11    13 ar  
    29    11    34 1   
    30    12    14 ar  
    31    12    35 1   
    32    13    15 ar  
    33    13    36 1   
    34    14    15 ar  
    35    14    37 1   
    36    15    38 1   
    37    16    21 1   
    38    16    39 1   
    39    16    40 1   
    40    17    22 1   
    41    17    41 1   
    42    17    42 1   
    43    18    43 1   
    44    19    44 1   
    45    20    45 1   
    46    20    46 1   
    47    21    47 1   
    48    21    48 1   
    49    22    49 1   
    50    22    50 1   
    51    23    51 1   
    52    30    51 1   
    53    31    51 1   
@<TRIPOS>SUBSTRUCTURE
     1 2KS         1 TEMP              0 ****  ****    0 ROOT
