@<TRIPOS>MOLECULE
2KS
   51    53     1     0     0
SMALL
bcc


@<TRIPOS>ATOM
      1 C1          -3.1850     0.3560     0.0340 c6         1 2KS       0.010300
      2 C2          -4.6080    -0.1900    -0.0250 ca         1 2KS      -0.046300
      3 C3          -2.4360    -0.1450     1.2780 c6         1 2KS      -0.068900
      4 C11         -6.4850    -1.4110     0.9160 ca         1 2KS      -0.128000
      5 C12         -6.6940    -0.4270    -1.2520 ca         1 2KS      -0.128000
      6 C13         -0.2430    -0.2900     0.0740 c6         1 2KS       0.150100
      7 C14         -7.2480    -1.1650    -0.2140 ca         1 2KS      -0.131000
      8 C17          3.3700    -0.0610    -0.4800 c2         1 2KS      -0.156200
      9 C18          4.4330    -0.8270    -0.2350 ce         1 2KS      -0.102200
     10 C19          5.8200    -0.3770    -0.0770 ca         1 2KS      -0.051800
     11 C20          6.2100     0.9600    -0.2130 ca         1 2KS      -0.116500
     12 C21          6.8030    -1.3210     0.2260 ca         1 2KS      -0.116500
     13 C22          7.5330     1.3330    -0.0470 ca         1 2KS      -0.130000
     14 C23          8.1300    -0.9500     0.3900 ca         1 2KS      -0.130000
     15 C24          8.5010     0.3810     0.2550 ca         1 2KS      -0.124000
     16 C4          -2.4080    -0.1300    -1.2090 c6         1 2KS      -0.068900
     17 C5          -3.2570     1.8960     0.0300 c3         1 2KS       0.158800
     18 C6          -5.1840    -0.9270     1.0080 ca         1 2KS      -0.123500
     19 C7          -5.3950     0.0490    -1.1550 ca         1 2KS      -0.123500
     20 C8          -0.9620     0.2450     1.3000 c6         1 2KS      -0.090400
     21 C9          -0.9180     0.2130    -1.1950 c6         1 2KS      -0.090400
     22 N10         -3.9230     2.4210     1.2100 n8         1 2KS      -0.881800
     23 O15          1.1130     0.1030     0.1660 os         1 2KS      -0.412600
     24 H1          -2.9230     0.2090     2.1900 hc         1 2KS       0.046450
     25 H2          -2.5010    -1.2380     1.3160 hc         1 2KS       0.046450
     26 H3          -6.8990    -1.9820     1.7380 ha         1 2KS       0.126500
     27 H4          -7.2740    -0.2200    -2.1430 ha         1 2KS       0.126500
     28 H5          -0.3110    -1.3910     0.0900 h1         1 2KS       0.031700
     29 H6          -8.2600    -1.5420    -0.2890 ha         1 2KS       0.128000
     30 H7           1.7150    -0.4680    -1.7380 h1         1 2KS       0.027200
     31 H8           1.9630    -1.6780    -0.4800 h1         1 2KS       0.027200
     32 H9           3.4720     1.0160    -0.5820 ha         1 2KS       0.131000
     33 H10          4.2850    -1.8990    -0.1350 ha         1 2KS       0.119000
     34 H11          5.4770     1.7200    -0.4500 ha         1 2KS       0.129500
     35 H12          6.5240    -2.3630     0.3340 ha         1 2KS       0.129500
     36 H13          7.8120     2.3730    -0.1560 ha         1 2KS       0.130000
     37 H14          8.8740    -1.7010     0.6240 ha         1 2KS       0.130000
     38 H15          9.5350     0.6740     0.3820 ha         1 2KS       0.130000
     39 H16         -2.5200    -1.2160    -1.2830 hc         1 2KS       0.046450
     40 H17         -2.8510     0.2800    -2.1200 hc         1 2KS       0.046450
     41 H18         -2.2510     2.3090    -0.1130 h1         1 2KS       0.029700
     42 H19         -3.8270     2.2110    -0.8470 h1         1 2KS       0.029700
     43 H20         -4.6250    -1.1400     1.9090 ha         1 2KS       0.124500
     44 H21         -4.9950     0.6220    -1.9830 ha         1 2KS       0.124500
     45 H22         -0.8470     1.3330     1.3450 hc         1 2KS       0.048950
     46 H23         -0.4990    -0.1560     2.2050 hc         1 2KS       0.048950
     47 H24         -0.7650     1.2940    -1.2740 hc         1 2KS       0.048950
     48 H25         -0.4580    -0.2290    -2.0820 hc         1 2KS       0.048950
     49 H26         -3.2850     2.4200     1.9960 hn         1 2KS       0.336300
     50 H27         -4.1490     3.3940     1.0550 hn         1 2KS       0.336300
     51 C16          1.9930    -0.5990    -0.6840 c3         1 2KS       0.173600
@<TRIPOS>BOND
     1     1     2 1   
     2     1     3 1   
     3     1    16 1   
     4     1    17 1   
     5     2    18 ar  
     6     2    19 ar  
     7     3    20 1   
     8     3    24 1   
     9     3    25 1   
    10     4     7 ar  
    11     4    18 ar  
    12     4    26 1   
    13     5     7 ar  
    14     5    19 ar  
    15     5    27 1   
    16     6    20 1   
    17     6    21 1   
    18     6    23 1   
    19     6    28 1   
    20     7    29 1   
    21     8     9 2   
    22     8    32 1   
    23     8    51 1   
    24     9    10 1   
    25     9    33 1   
    26    10    11 ar  
    27    10    12 ar  
    28    11    13 ar  
    29    11    34 1   
    30    12    14 ar  
    31    12    35 1   
    32    13    15 ar  
    33    13    36 1   
    34    14    15 ar  
    35    14    37 1   
    36    15    38 1   
    37    16    21 1   
    38    16    39 1   
    39    16    40 1   
    40    17    22 1   
    41    17    41 1   
    42    17    42 1   
    43    18    43 1   
    44    19    44 1   
    45    20    45 1   
    46    20    46 1   
    47    21    47 1   
    48    21    48 1   
    49    22    49 1   
    50    22    50 1   
    51    23    51 1   
    52    30    51 1   
    53    31    51 1   
@<TRIPOS>SUBSTRUCTURE
     1 2KS         1 TEMP              0 ****  ****    0 ROOT
