@<TRIPOS>MOLECULE
2KT
   12    11     1     0     0
SMALL
No Charge or Current Charge


@<TRIPOS>ATOM
      1 C4           2.5640     0.1660    -0.3750 c3         1 2KT      -0.074100
      2 C3           1.4600     0.8010     0.4950 c3         1 2KT      -0.193400
      3 C2           0.2340    -0.1300     0.6100 c          1 2KT       0.426100
      4 O3           0.2080    -1.0170     1.4690 o          1 2KT      -0.568100
      5 C1          -0.9810     0.1010    -0.4390 c          1 2KT       0.646000
      6 O1          -1.5800    -0.8840    -0.8660 o          1 2KT      -0.701500
      7 O2          -1.2750     1.2500    -0.7590 o          1 2KT      -0.701500
      8 H41          2.9090    -0.7780     0.0640 hc         1 2KT       0.015700
      9 H42          2.1910    -0.0380    -1.3860 hc         1 2KT       0.015700
     10 H43          3.4240     0.8410    -0.4560 hc         1 2KT       0.015700
     11 H31          1.8690     0.9980     1.4940 hc         1 2KT       0.059200
     12 H32          1.1710     1.7390     0.0090 hc         1 2KT       0.059200
@<TRIPOS>BOND
     1     1     2 1   
     2     1     8 1   
     3     1     9 1   
     4     1    10 1   
     5     2     3 1   
     6     2    11 1   
     7     2    12 1   
     8     3     4 2   
     9     3     5 1   
    10     5     6 1   
    11     5     7 1   
@<TRIPOS>SUBSTRUCTURE
     1 2KT         1 TEMP              0 ****  ****    0 ROOT
