@<TRIPOS>MOLECULE
2KT
   12    11     1     0     0
SMALL
bcc


@<TRIPOS>ATOM
      1 C4           2.7720     0.1400    -0.0280 c3         1 2KT      -0.074100
      2 C3           1.3780     0.7410    -0.0210 c3         1 2KT      -0.193400
      3 C2           0.2680    -0.2750    -0.0030 c          1 2KT       0.426100
      4 O3           0.4870    -1.4640    -0.0030 o          1 2KT      -0.568100
      5 C1          -1.1960     0.2580     0.0160 c          1 2KT       0.856600
      6 O1          -2.0830    -0.6060    -0.0170 o          1 2KT      -0.806800
      7 O2          -1.3150     1.4940     0.0630 o          1 2KT      -0.806800
      8 H41          2.9520    -0.4730     0.8550 hc         1 2KT       0.015700
      9 H42          2.9350    -0.4890    -0.9040 hc         1 2KT       0.015700
     10 H43          3.5250     0.9280    -0.0430 hc         1 2KT       0.015700
     11 H31          1.2420     1.4060     0.8370 hc         1 2KT       0.059200
     12 H32          1.2280     1.3890    -0.8900 hc         1 2KT       0.059200
@<TRIPOS>BOND
     1     1     2 1   
     2     1     8 1   
     3     1     9 1   
     4     1    10 1   
     5     2     3 1   
     6     2    11 1   
     7     2    12 1   
     8     3     4 2   
     9     3     5 1   
    10     5     6 1   
    11     5     7 1   
@<TRIPOS>SUBSTRUCTURE
     1 2KT         1 TEMP              0 ****  ****    0 ROOT
