@<TRIPOS>MOLECULE
2KU
   28    29     1     0     0
SMALL
No Charge or Current Charge


@<TRIPOS>ATOM
      1 C15          6.5170    -0.1810    -0.0260 c3         1 2KU       0.146900
      2 C13          4.1520     0.3160    -0.0090 c3         1 2KU       0.162600
      3 C12          2.7890    -0.3990    -0.0050 c3         1 2KU      -0.103400
      4 C11          1.6100     0.5900     0.0080 c3         1 2KU       0.233800
      5 N1          -1.0780     1.7460     0.0330 nb         1 2KU      -0.301000
      6 C2          -2.3440     2.2260     0.0440 ca         1 2KU       0.182900
      7 N3          -3.4850     1.4970     0.0450 nb         1 2KU      -0.222000
      8 C4          -3.3260     0.1610     0.0340 ca         1 2KU       0.123500
      9 C5          -2.0890    -0.4300     0.0230 ca         1 2KU      -0.101600
     10 C6          -0.9510     0.4050     0.0230 ca         1 2KU       0.448900
     11 N10          0.3310    -0.1340     0.0120 nu         1 2KU      -0.913100
     12 N7          -2.1660    -1.8200     0.0130 nc         1 2KU      -0.552100
     13 C8          -3.4950    -2.0310     0.0190 cd         1 2KU       0.397700
     14 N9          -4.2460    -0.8480     0.0320 na         1 2KU      -0.411300
     15 O12          5.1740    -0.6940    -0.0210 os         1 2KU      -0.454000
     16 H151         6.7050     0.4290     0.8670 h1         1 2KU       0.029367
     17 H152         7.2400    -1.0060    -0.0350 h1         1 2KU       0.029367
     18 H153         6.6940     0.4390    -0.9150 h1         1 2KU       0.029367
     19 H131         4.2290     0.9570    -0.8970 h1         1 2KU       0.023700
     20 H132         4.2400     0.9470     0.8860 h1         1 2KU       0.023700
     21 H121         2.7180    -1.0380    -0.8930 hc         1 2KU       0.060200
     22 H122         2.7290    -1.0490     0.8770 hc         1 2KU       0.060200
     23 H111         1.6830     1.2290     0.9000 h1         1 2KU       0.055200
     24 H112         1.6720     1.2390    -0.8770 h1         1 2KU       0.055200
     25 H10          0.3480    -1.1550     0.0040 hn         1 2KU       0.516000
     26 H9          -5.2550    -0.7700     0.0380 hn         1 2KU       0.369000
     27 H8          -3.9800    -3.0010     0.0150 h5         1 2KU       0.066800
     28 H2          -2.4560     3.3090     0.0530 h5         1 2KU       0.045100
@<TRIPOS>BOND
     1     1    15 1   
     2     1    16 1   
     3     1    17 1   
     4     1    18 1   
     5     2     3 1   
     6     2    15 1   
     7     2    19 1   
     8     2    20 1   
     9     3     4 1   
    10     3    21 1   
    11     3    22 1   
    12     4    11 1   
    13     4    23 1   
    14     4    24 1   
    15     5     6 ar  
    16     5    10 ar  
    17     6     7 ar  
    18     6    28 1   
    19     7     8 ar  
    20     8     9 ar  
    21     8    14 1   
    22     9    10 ar  
    23     9    12 1   
    24    10    11 1   
    25    11    25 1   
    26    12    13 2   
    27    13    14 1   
    28    13    27 1   
    29    14    26 1   
@<TRIPOS>SUBSTRUCTURE
     1 2KU         1 TEMP              0 ****  ****    0 ROOT
