@<TRIPOS>MOLECULE
2KU
   28    29     1     0     0
SMALL
bcc


@<TRIPOS>ATOM
      1 C15          6.4100     0.0070    -0.0290 c3         1 2KU       0.123700
      2 C13          4.0890     0.2730    -0.0090 c3         1 2KU       0.139400
      3 C12          2.7840    -0.4980     0.0130 c3         1 2KU      -0.103400
      4 C11          1.5970     0.4520     0.0080 c3         1 2KU       0.233800
      5 N1          -0.9580     1.6020     0.0440 nb         1 2KU      -0.827000
      6 C2          -2.1710     2.1530     0.0560 ca         1 2KU       0.708900
      7 N3          -3.3470     1.5540     0.0520 nb         1 2KU      -0.748000
      8 C4          -3.2250     0.2250     0.0340 ca         1 2KU       0.451800
      9 C5          -2.0370    -0.4900     0.0200 ca         1 2KU      -0.232200
     10 C6          -0.8500     0.2700     0.0260 ca         1 2KU       0.777200
     11 N10          0.3590    -0.2960     0.0150 nu         1 2KU      -0.857900
     12 N7          -2.2760    -1.8390     0.0030 nc         1 2KU      -0.552100
     13 C8          -3.5750    -1.9330     0.0060 cd         1 2KU       0.397700
     14 N9          -4.1990    -0.7240     0.0240 na         1 2KU      -0.361000
     15 O12          5.1610    -0.6360     0.0000 os         1 2KU      -0.407600
     16 H151         6.5570     0.6580     0.8410 h1         1 2KU       0.029367
     17 H152         7.1850    -0.7580    -0.0210 h1         1 2KU       0.029367
     18 H153         6.5370     0.6190    -0.9300 h1         1 2KU       0.029367
     19 H131         4.1310     0.9130    -0.9030 h1         1 2KU       0.023700
     20 H132         4.1430     0.9450     0.8610 h1         1 2KU       0.023700
     21 H121         2.7330    -1.1550    -0.8600 hc         1 2KU       0.060200
     22 H122         2.7460    -1.1310     0.9040 hc         1 2KU       0.060200
     23 H111         1.6410     1.1100     0.8800 h1         1 2KU       0.055200
     24 H112         1.6390     1.0990    -0.8740 h1         1 2KU       0.055200
     25 H10          0.4040    -1.3020    -0.0100 hn         1 2KU       0.460800
     26 H9          -5.1960    -0.5680     0.0310 hn         1 2KU       0.318700
     27 H8          -4.1360    -2.8550    -0.0050 h5         1 2KU       0.066800
     28 H2          -2.1870     3.2370     0.0710 h5         1 2KU       0.045100
@<TRIPOS>BOND
     1     1    15 1   
     2     1    16 1   
     3     1    17 1   
     4     1    18 1   
     5     2     3 1   
     6     2    15 1   
     7     2    19 1   
     8     2    20 1   
     9     3     4 1   
    10     3    21 1   
    11     3    22 1   
    12     4    11 1   
    13     4    23 1   
    14     4    24 1   
    15     5     6 ar  
    16     5    10 ar  
    17     6     7 ar  
    18     6    28 1   
    19     7     8 ar  
    20     8     9 ar  
    21     8    14 1   
    22     9    10 ar  
    23     9    12 1   
    24    10    11 1   
    25    11    25 1   
    26    12    13 2   
    27    13    14 1   
    28    13    27 1   
    29    14    26 1   
@<TRIPOS>SUBSTRUCTURE
     1 2KU         1 TEMP              0 ****  ****    0 ROOT
