@<TRIPOS>MOLECULE
2KV
   47    49     1     0     0
SMALL
bcc


@<TRIPOS>ATOM
      1 C2           4.1450     0.3880     0.5720 c          1 2KV       0.710500
      2 C3          -0.8240     0.6160     0.1180 c6         1 2KV       0.009300
      3 C11          1.2640    -0.6980     0.8810 c6         1 2KV      -0.088900
      4 C12         -4.4600    -0.5450     0.1970 ca         1 2KV       0.027400
      5 C13          4.0320    -1.4730    -1.0730 c6         1 2KV       0.110000
      6 C16         -0.7100     1.7000     1.2130 c3         1 2KV       0.153800
      7 C17          5.6440     0.1880     0.6750 c6         1 2KV      -0.160400
      8 C18         -2.9180     1.2430    -1.2030 ca         1 2KV      -0.102000
      9 C19         -4.2720     1.1230    -1.4780 ca         1 2KV      -0.124000
     10 C20         -5.0650     0.2250    -0.7800 ca         1 2KV      -0.124000
     11 C21          5.5400    -1.4150    -1.1850 c6         1 2KV      -0.091400
     12 C22          6.1520    -1.1520     0.1760 c6         1 2KV      -0.073400
     13 N1           3.4520    -0.3810    -0.2920 n          1 2KV      -0.475800
     14 C4          -2.3030     0.4610    -0.2240 ca         1 2KV      -0.044300
     15 C5           1.9920    -0.2810    -0.3920 c6         1 2KV       0.119700
     16 O6           3.6120     1.2610     1.2510 o          1 2KV      -0.657500
     17 C7          -3.1070    -0.4390     0.4770 ca         1 2KV      -0.129000
     18 C8          -0.0180     0.9990    -1.1370 c6         1 2KV      -0.068900
     19 C9          -0.2490    -0.7060     0.6670 c6         1 2KV      -0.068900
     20 C10          1.4870     1.0640    -0.8990 c6         1 2KV      -0.088900
     21 N15         -1.1480     3.0080     0.7610 n8         1 2KV      -0.887800
     22 H1           1.5790    -1.7040     1.1700 hc         1 2KV       0.056200
     23 H2           1.5320    -0.0370     1.7040 hc         1 2KV       0.056200
     24 H3           3.5910    -1.4410    -2.0710 h1         1 2KV       0.039700
     25 H4           3.7300    -2.4280    -0.6260 h1         1 2KV       0.039700
     26 H5          -1.3470     1.3930     2.0480 h1         1 2KV       0.039200
     27 H6           0.3150     1.7090     1.6040 h1         1 2KV       0.039200
     28 H7           6.1080     0.9950     0.0970 hc         1 2KV       0.071200
     29 H8           5.9190     0.3640     1.7160 hc         1 2KV       0.071200
     30 H9          -2.3430     1.9600    -1.7690 ha         1 2KV       0.137000
     31 H10         -4.7210     1.7400    -2.2460 ha         1 2KV       0.133000
     32 H11         -6.1210     0.1290    -0.9930 ha         1 2KV       0.145000
     33 H12          5.8880    -2.3580    -1.6100 hc         1 2KV       0.052700
     34 H13          5.8330    -0.6220    -1.8790 hc         1 2KV       0.052700
     35 H14          7.2420    -1.1430     0.1250 hc         1 2KV       0.049700
     36 H15          5.8760    -1.9480     0.8740 hc         1 2KV       0.049700
     37 H16          1.7220    -1.0150    -1.1590 h1         1 2KV       0.040700
     38 H17         -2.6900    -1.0650     1.2530 ha         1 2KV       0.141000
     39 H18         -0.2250     0.2590    -1.9180 hc         1 2KV       0.044700
     40 H19         -0.3470     1.9590    -1.5410 hc         1 2KV       0.044700
     41 H20         -0.7210    -0.9610     1.6190 hc         1 2KV       0.044700
     42 H21         -0.5030    -1.5110    -0.0320 hc         1 2KV       0.044700
     43 H22          1.7280     1.8540    -0.1880 hc         1 2KV       0.056200
     44 H23          1.9880     1.3150    -1.8380 hc         1 2KV       0.056200
     45 H24         -1.2500     3.6160     1.5630 hn         1 2KV       0.338300
     46 H25         -0.4250     3.4330     0.1940 hn         1 2KV       0.338300
     47 CL1         -5.4180    -1.6800     1.1000 cl         1 2KV      -0.125400
@<TRIPOS>BOND
     1     1     7 1   
     2     1    13 1   
     3     1    16 2   
     4     2     6 1   
     5     2    14 1   
     6     2    18 1   
     7     2    19 1   
     8     3    15 1   
     9     3    19 1   
    10     3    22 1   
    11     3    23 1   
    12     4    10 ar  
    13     4    17 ar  
    14     4    47 1   
    15     5    11 1   
    16     5    13 1   
    17     5    24 1   
    18     5    25 1   
    19     6    21 1   
    20     6    26 1   
    21     6    27 1   
    22     7    12 1   
    23     7    28 1   
    24     7    29 1   
    25     8     9 ar  
    26     8    14 ar  
    27     8    30 1   
    28     9    10 ar  
    29     9    31 1   
    30    10    32 1   
    31    11    12 1   
    32    11    33 1   
    33    11    34 1   
    34    12    35 1   
    35    12    36 1   
    36    13    15 1   
    37    14    17 ar  
    38    15    20 1   
    39    15    37 1   
    40    17    38 1   
    41    18    20 1   
    42    18    39 1   
    43    18    40 1   
    44    19    41 1   
    45    19    42 1   
    46    20    43 1   
    47    20    44 1   
    48    21    45 1   
    49    21    46 1   
@<TRIPOS>SUBSTRUCTURE
     1 2KV         1 TEMP              0 ****  ****    0 ROOT
