@<TRIPOS>MOLECULE
2KV
   47    49     1     0     0
SMALL
No Charge or Current Charge


@<TRIPOS>ATOM
      1 C2           4.1960     0.3510     0.6980 c          1 2KV       0.568000
      2 C3          -0.8620     0.6140     0.0880 c6         1 2KV       0.009300
      3 C11          1.2090    -0.8550     0.7370 c6         1 2KV      -0.088900
      4 C12         -4.6450    -0.1610     0.4640 ca         1 2KV       0.119000
      5 C13          4.1220    -1.4050    -1.1590 c6         1 2KV       0.110000
      6 C16         -0.7050     1.5920     1.3160 c3         1 2KV       0.153800
      7 C17          5.7240     0.2010     0.7700 c6         1 2KV      -0.160400
      8 C18         -2.9330     0.8810    -1.4960 ca         1 2KV      -0.084000
      9 C19         -4.3090     0.7470    -1.7570 ca         1 2KV      -0.106000
     10 C20         -5.1660     0.2240    -0.7780 ca         1 2KV      -0.106000
     11 C21          5.6630    -1.3430    -1.2030 c6         1 2KV      -0.091400
     12 C22          6.2510    -1.1310     0.2010 c6         1 2KV      -0.073400
     13 N1           3.4820    -0.3760    -0.2900 n          1 2KV      -0.408800
     14 C4          -2.3850     0.4900    -0.2470 ca         1 2KV      -0.044300
     15 C5           2.0040    -0.2850    -0.4620 c6         1 2KV       0.119700
     16 O6           3.6300     1.0760     1.5050 o          1 2KV      -0.582000
     17 C7          -3.2720    -0.0290     0.7280 ca         1 2KV      -0.111000
     18 C8          -0.0130     1.1250    -1.1360 c6         1 2KV      -0.068900
     19 C9          -0.3200    -0.8110     0.4690 c6         1 2KV      -0.068900
     20 C10          1.5190     1.1230    -0.8860 c6         1 2KV      -0.088900
     21 N15         -1.2390     2.9600     1.1060 n8         1 2KV      -0.998200
     22 H1           1.5170    -1.8940     0.9190 hc         1 2KV       0.056200
     23 H2           1.4420    -0.3060     1.6570 hc         1 2KV       0.056200
     24 H3           3.7350    -1.3170    -2.1840 h1         1 2KV       0.039700
     25 H4           3.8220    -2.3940    -0.7830 h1         1 2KV       0.039700
     26 H5          -1.2170     1.1600     2.1860 h1         1 2KV       0.039200
     27 H6           0.3550     1.6840     1.5850 h1         1 2KV       0.039200
     28 H7           6.1290     1.0070     0.1430 hc         1 2KV       0.071200
     29 H8           6.0720     0.3980     1.7920 hc         1 2KV       0.071200
     30 H9          -2.3140     1.2980    -2.2840 ha         1 2KV       0.119000
     31 H10         -4.7100     1.0520    -2.7210 ha         1 2KV       0.115000
     32 H11         -6.2300     0.1210    -0.9790 ha         1 2KV       0.127000
     33 H12          6.0580    -2.2670    -1.6480 hc         1 2KV       0.052700
     34 H13          5.9770    -0.5220    -1.8630 hc         1 2KV       0.052700
     35 H14          7.3490    -1.1170     0.1560 hc         1 2KV       0.049700
     36 H15          5.9670    -1.9630     0.8600 hc         1 2KV       0.049700
     37 H16          1.7420    -0.9380    -1.3080 h1         1 2KV       0.040700
     38 H17         -2.9050    -0.3320     1.7040 ha         1 2KV       0.123000
     39 H18         -0.2080     0.4840    -2.0060 hc         1 2KV       0.044700
     40 H19         -0.3240     2.1380    -1.4250 hc         1 2KV       0.044700
     41 H20         -0.8360    -1.1970     1.3580 hc         1 2KV       0.044700
     42 H21         -0.5580    -1.5140    -0.3420 hc         1 2KV       0.044700
     43 H22          1.7790     1.8730    -0.1300 hc         1 2KV       0.056200
     44 H23          2.0390     1.4260    -1.8050 hc         1 2KV       0.056200
     45 H24         -1.0180     3.5360     1.9270 hn         1 2KV       0.393500
     46 H25         -0.7150     3.4070     0.3460 hn         1 2KV       0.393500
     47 Cl1         -5.7150    -0.8120     1.6990 cl         1 2KV      -0.217000
@<TRIPOS>BOND
     1     1     7 1   
     2     1    13 1   
     3     1    16 2   
     4     2     6 1   
     5     2    14 1   
     6     2    18 1   
     7     2    19 1   
     8     3    15 1   
     9     3    19 1   
    10     3    22 1   
    11     3    23 1   
    12     4    10 ar  
    13     4    17 ar  
    14     4    47 1   
    15     5    11 1   
    16     5    13 1   
    17     5    24 1   
    18     5    25 1   
    19     6    21 1   
    20     6    26 1   
    21     6    27 1   
    22     7    12 1   
    23     7    28 1   
    24     7    29 1   
    25     8     9 ar  
    26     8    14 ar  
    27     8    30 1   
    28     9    10 ar  
    29     9    31 1   
    30    10    32 1   
    31    11    12 1   
    32    11    33 1   
    33    11    34 1   
    34    12    35 1   
    35    12    36 1   
    36    13    15 1   
    37    14    17 ar  
    38    15    20 1   
    39    15    37 1   
    40    17    38 1   
    41    18    20 1   
    42    18    39 1   
    43    18    40 1   
    44    19    41 1   
    45    19    42 1   
    46    20    43 1   
    47    20    44 1   
    48    21    45 1   
    49    21    46 1   
@<TRIPOS>SUBSTRUCTURE
     1 2KV         1 TEMP              0 ****  ****    0 ROOT
