@<TRIPOS>MOLECULE
2KW
   40    42     1     0     0
SMALL
abcg2


@<TRIPOS>ATOM
      1 C8          -0.8290    -2.6640    -0.1760 cc         1 2KW      -0.106200
      2 C7          -0.7380    -1.5670     0.6190 cd         1 2KW       0.016900
      3 C9           0.3280    -3.4360    -0.4350 cc         1 2KW      -0.258000
      4 C10          1.5100    -3.0140     0.0710 cd         1 2KW      -0.021400
      5 C5          -2.1010     3.1190    -0.3960 ca         1 2KW      -0.093000
      6 C4          -2.9660     2.5910     0.5610 ca         1 2KW       0.022000
      7 C3          -2.8610     1.2760     0.9990 ca         1 2KW      -0.087000
      8 C2          -1.8700     0.4730     0.4570 ca         1 2KW       0.145100
      9 C1          -1.0000     0.9640    -0.5070 ca         1 2KW      -0.143000
     10 C13         -2.1580    -3.0390    -0.7780 c3         1 2KW       0.363200
     11 C12          0.5090    -1.1460     1.2200 c          1 2KW       0.541200
     12 C18          3.2240    -0.2130     0.4000 cc         1 2KW       0.334900
     13 C21          4.2460     1.6160    -0.3240 c          1 2KW       0.567000
     14 C           -1.1280     2.2840    -0.9110 ca         1 2KW       0.147000
     15 F           -2.6610    -2.0400    -1.5090 f          1 2KW      -0.103000
     16 N           -4.8050     4.1050     1.5520 n1         1 2KW      -0.438000
     17 O           -1.8310    -0.8120     0.9040 os         1 2KW      -0.218200
     18 CL          -0.0360     2.8970    -2.1010 cl         1 2KW      -0.194000
     19 N11          1.6010    -1.9140     0.8580 n          1 2KW      -0.259000
     20 F14         -2.0540    -4.1000    -1.5790 f          1 2KW      -0.103000
     21 F15         -3.0550    -3.3400     0.1630 f          1 2KW      -0.103000
     22 O16          0.6160    -0.1790     1.9560 o          1 2KW      -0.513000
     23 N19          2.5600     0.1360    -0.6460 n2         1 2KW      -0.484300
     24 N20          3.1860     1.2530    -1.0880 ns         1 2KW      -0.362400
     25 N22          4.2580     0.6350     0.6520 n          1 2KW      -0.322300
     26 O23          5.0070     2.5590    -0.4470 o          1 2KW      -0.551000
     27 H1           0.3040    -4.3240    -1.0450 ha         1 2KW       0.224000
     28 H2           2.4340    -3.5380    -0.1260 h4         1 2KW       0.211000
     29 H3          -2.1930     4.1450    -0.7220 ha         1 2KW       0.145000
     30 H4          -3.5360     0.8840     1.7480 ha         1 2KW       0.148000
     31 H5          -0.2250     0.3470    -0.9440 ha         1 2KW       0.148000
     32 H6           5.8250    -0.3420     1.6440 h1         1 2KW       0.057367
     33 H7           5.8680     1.4240     1.6700 h1         1 2KW       0.057367
     34 H8           4.7160     0.5650     2.6950 h1         1 2KW       0.057367
     35 H9           3.6470    -2.1870     1.1020 h1         1 2KW       0.086700
     36 H10          2.9050    -1.1410     2.3000 h1         1 2KW       0.086700
     37 H11          2.8360     1.7450    -1.8940 hn         1 2KW       0.497000
     38 C17          2.9020    -1.4030     1.2410 c3         1 2KW       0.078700
     39 C6          -3.9850     3.4280     1.1100 cg         1 2KW       0.321000
     40 C24          5.2170     0.5570     1.7280 c3         1 2KW       0.102300
@<TRIPOS>BOND
     1     1     2 2   
     2     1     3 1   
     3     1    10 1   
     4     2    11 1   
     5     2    17 1   
     6     3     4 2   
     7     3    27 1   
     8     4    19 1   
     9     4    28 1   
    10     5     6 ar  
    11     5    14 ar  
    12     5    29 1   
    13     6     7 ar  
    14     6    39 1   
    15     7     8 ar  
    16     7    30 1   
    17     8     9 ar  
    18     8    17 1   
    19     9    14 ar  
    20     9    31 1   
    21    10    15 1   
    22    10    20 1   
    23    10    21 1   
    24    11    19 1   
    25    11    22 2   
    26    12    23 2   
    27    12    25 1   
    28    12    38 1   
    29    13    24 1   
    30    13    25 1   
    31    13    26 2   
    32    14    18 1   
    33    16    39 3   
    34    19    38 1   
    35    23    24 1   
    36    24    37 1   
    37    25    40 1   
    38    32    40 1   
    39    33    40 1   
    40    34    40 1   
    41    35    38 1   
    42    36    38 1   
@<TRIPOS>SUBSTRUCTURE
     1 2KW         1 TEMP              0 ****  ****    0 ROOT
