@<TRIPOS>MOLECULE
2KW
   40    42     1     0     0
SMALL
No Charge or Current Charge


@<TRIPOS>ATOM
      1 C8          -0.7740    -2.5390    -0.4300 cc         1 2KW      -0.106200
      2 C7          -0.6870    -1.5470     0.5350 cd         1 2KW       0.016900
      3 C9           0.4610    -3.2080    -0.7690 cc         1 2KW      -0.258000
      4 C10          1.6560    -2.8620    -0.1770 cd         1 2KW      -0.021400
      5 C5          -2.0240     3.3320     0.7530 ca         1 2KW      -0.093000
      6 C4          -2.7870     2.6040     1.6890 ca         1 2KW       0.022000
      7 C3          -2.7200     1.1970     1.6960 ca         1 2KW      -0.087000
      8 C2          -1.8970     0.5240     0.7790 ca         1 2KW       0.145100
      9 C1          -1.1520     1.2540    -0.1670 ca         1 2KW      -0.143000
     10 C13         -2.0750    -2.9240    -1.1280 c3         1 2KW       0.363200
     11 C12          0.5930    -1.1480     1.2080 c          1 2KW       0.541200
     12 C18          3.9510    -0.7930     0.3400 cc         1 2KW       0.334900
     13 C21          4.7780     0.8170    -1.0180 c          1 2KW       0.567000
     14 C           -1.2120     2.6550    -0.1710 ca         1 2KW       0.147000
     15 F           -2.5770    -1.8890    -1.8400 f          1 2KW      -0.103000
     16 N           -4.3080     3.8570     3.3940 n1         1 2KW      -0.438000
     17 O           -1.8410    -0.8510     0.8120 os         1 2KW      -0.218200
     18 Cl          -0.2610     3.5640    -1.3370 cl         1 2KW      -0.194000
     19 N11          1.7410    -1.8550     0.7790 n          1 2KW      -0.259000
     20 F14         -1.9290    -3.9550    -1.9930 f          1 2KW      -0.103000
     21 F15         -3.0240    -3.2970    -0.2390 f          1 2KW      -0.103000
     22 O16          0.6530    -0.2740     2.0670 o          1 2KW      -0.513000
     23 N19          4.9480    -1.3470    -0.2980 n2         1 2KW      -0.484300
     24 N20          5.4560    -0.3600    -1.1270 ns         1 2KW      -0.362400
     25 N22          3.8170     0.5270    -0.0710 n          1 2KW      -0.322300
     26 O23          4.9790     1.8620    -1.6150 o          1 2KW      -0.551000
     27 H1           0.4600    -3.9980    -1.5180 ha         1 2KW       0.224000
     28 H2           2.6090    -3.3340    -0.4130 h4         1 2KW       0.211000
     29 H3          -2.0620     4.4190     0.7380 ha         1 2KW       0.145000
     30 H4          -3.2980     0.6220     2.4160 ha         1 2KW       0.148000
     31 H5          -0.5300     0.7420    -0.8960 ha         1 2KW       0.148000
     32 H6           2.7240     1.4580     1.4840 h1         1 2KW       0.057367
     33 H7           3.1060     2.5200     0.1050 h1         1 2KW       0.057367
     34 H8           1.8410     1.2720    -0.0610 h1         1 2KW       0.057367
     35 H9           3.5740    -2.4230     1.6640 h1         1 2KW       0.086700
     36 H10          2.9740    -0.8720     2.2370 h1         1 2KW       0.086700
     37 H11          6.2430    -0.4410    -1.7760 hn         1 2KW       0.497000
     38 C17          3.0720    -1.5010     1.3450 c3         1 2KW       0.078700
     39 C6          -3.6230     3.2940     2.6340 cg         1 2KW       0.321000
     40 C24          2.8120     1.5020     0.3920 c3         1 2KW       0.102300
@<TRIPOS>BOND
     1     1     2 2   
     2     1     3 1   
     3     1    10 1   
     4     2    11 1   
     5     2    17 1   
     6     3     4 2   
     7     3    27 1   
     8     4    19 1   
     9     4    28 1   
    10     5     6 ar  
    11     5    14 ar  
    12     5    29 1   
    13     6     7 ar  
    14     6    39 1   
    15     7     8 ar  
    16     7    30 1   
    17     8     9 ar  
    18     8    17 1   
    19     9    14 ar  
    20     9    31 1   
    21    10    15 1   
    22    10    20 1   
    23    10    21 1   
    24    11    19 1   
    25    11    22 2   
    26    12    23 2   
    27    12    25 1   
    28    12    38 1   
    29    13    24 1   
    30    13    25 1   
    31    13    26 2   
    32    14    18 1   
    33    16    39 3   
    34    19    38 1   
    35    23    24 1   
    36    24    37 1   
    37    25    40 1   
    38    32    40 1   
    39    33    40 1   
    40    34    40 1   
    41    35    38 1   
    42    36    38 1   
@<TRIPOS>SUBSTRUCTURE
     1 2KW         1 TEMP              0 ****  ****    0 ROOT
