@<TRIPOS>MOLECULE
2KY
   22    22     1     0     0
SMALL
bcc


@<TRIPOS>ATOM
      1 C5           1.8880    -0.3410     0.0260 c          1 2KY       0.936600
      2 C6           0.7710     0.6250     0.4640 c3         1 2KY       0.026500
      3 N7           1.1930     2.0000     0.2140 n8         1 2KY      -0.871800
      4 O32          2.4200    -0.1030    -1.0800 o          1 2KY      -0.840800
      5 C33         -0.5400     0.2400    -0.2300 c5         1 2KY      -0.080700
      6 C34         -1.7360     1.1140     0.1910 c5         1 2KY      -0.074400
      7 C35         -2.9970     0.2360     0.0290 c5         1 2KY      -0.080400
      8 C36         -2.4890    -1.1490    -0.4040 c5         1 2KY      -0.080400
      9 C37         -1.0310    -1.1820     0.0460 c5         1 2KY      -0.074400
     10 H6           0.6150     0.5130     1.5440 h1         1 2KY       0.043700
     11 H7           1.4400     2.0800    -0.7660 hn         1 2KY       0.316800
     12 H33         -0.3920     0.3450    -1.3130 hc         1 2KY       0.047700
     13 H341        -1.6200     1.4160     1.2370 hc         1 2KY       0.041450
     14 H342        -1.7960     2.0330    -0.3940 hc         1 2KY       0.041450
     15 H352        -3.5350     0.1670     0.9760 hc         1 2KY       0.022200
     16 H351        -3.6990     0.6520    -0.6950 hc         1 2KY       0.022200
     17 H361        -3.0840    -1.9650     0.0090 hc         1 2KY       0.022200
     18 H362        -2.5350    -1.2440    -1.4930 hc         1 2KY       0.022200
     19 H371        -0.4460    -1.9460    -0.4660 hc         1 2KY       0.041450
     20 H372        -0.9680    -1.3920     1.1200 hc         1 2KY       0.041450
     21 H2           0.4160     2.6320     0.3650 hn         1 2KY       0.316800
     22 OXT          2.1510    -1.2980     0.7800 o          1 2KY      -0.840800
@<TRIPOS>BOND
     1     1     2 1   
     2     1     4 1   
     3     1    22 1   
     4     2     3 1   
     5     2     5 1   
     6     2    10 1   
     7     3    11 1   
     8     3    21 1   
     9     5     6 1   
    10     5     9 1   
    11     5    12 1   
    12     6     7 1   
    13     6    13 1   
    14     6    14 1   
    15     7     8 1   
    16     7    15 1   
    17     7    16 1   
    18     8     9 1   
    19     8    17 1   
    20     8    18 1   
    21     9    19 1   
    22     9    20 1   
@<TRIPOS>SUBSTRUCTURE
     1 2KY         1 TEMP              0 ****  ****    0 ROOT
