@<TRIPOS>MOLECULE
2KY
   22    22     1     0     0
SMALL
No Charge or Current Charge


@<TRIPOS>ATOM
      1 C5           1.9550    -0.4100    -0.0610 c          1 2KY       0.726000
      2 C6           0.8430     0.6280     0.3990 c3         1 2KY       0.026500
      3 N7           1.1370     2.0830     0.1350 n8         1 2KY      -0.982200
      4 O32          2.2790    -0.4370    -1.2430 o          1 2KY      -0.735500
      5 C33         -0.5590     0.2690    -0.1790 c5         1 2KY      -0.080700
      6 C34         -1.7520     1.0430     0.4470 c5         1 2KY      -0.074400
      7 C35         -2.9790     0.3130    -0.1710 c5         1 2KY      -0.080400
      8 C36         -2.5010    -1.1590    -0.3840 c5         1 2KY      -0.080400
      9 C37         -1.0320    -1.1780     0.1260 c5         1 2KY      -0.074400
     10 H6           0.7660     0.5210     1.4900 h1         1 2KY       0.043700
     11 H7           1.2920     2.2060    -0.8730 hn         1 2KY       0.372000
     12 H33         -0.5120     0.4330    -1.2640 hc         1 2KY       0.047700
     13 H341        -1.7540     0.9680     1.5410 hc         1 2KY       0.041450
     14 H342        -1.7480     2.1100     0.1960 hc         1 2KY       0.041450
     15 H352        -3.8550     0.3720     0.4850 hc         1 2KY       0.022200
     16 H351        -3.2650     0.7670    -1.1260 hc         1 2KY       0.022200
     17 H361        -3.1250    -1.8790     0.1570 hc         1 2KY       0.022200
     18 H362        -2.5510    -1.4300    -1.4460 hc         1 2KY       0.022200
     19 H371        -0.4320    -1.9370    -0.3880 hc         1 2KY       0.041450
     20 H372        -0.9850    -1.4000     1.1990 hc         1 2KY       0.041450
     21 H2           0.2920     2.6320     0.3250 hn         1 2KY       0.372000
     22 OXT          2.5120    -1.0830     0.7960 o          1 2KY      -0.735500
@<TRIPOS>BOND
     1     1     2 1   
     2     1     4 1   
     3     1    22 1   
     4     2     3 1   
     5     2     5 1   
     6     2    10 1   
     7     3    11 1   
     8     3    21 1   
     9     5     6 1   
    10     5     9 1   
    11     5    12 1   
    12     6     7 1   
    13     6    13 1   
    14     6    14 1   
    15     7     8 1   
    16     7    15 1   
    17     7    16 1   
    18     8     9 1   
    19     8    17 1   
    20     8    18 1   
    21     9    19 1   
    22     9    20 1   
@<TRIPOS>SUBSTRUCTURE
     1 2KY         1 TEMP              0 ****  ****    0 ROOT
