@<TRIPOS>MOLECULE
2KZ
   12    11     1     0     0
SMALL
abcg2


@<TRIPOS>ATOM
      1 OD1          2.1550   -52.1050   -19.2310 o          1 2KZ      -0.768000
      2 CG           1.8640   -53.3090   -19.3960 c          1 2KZ       0.758200
      3 OD2          0.7150   -53.7920   -19.4450 o          1 2KZ      -0.768000
      4 CB           3.0180   -54.2440   -19.7020 ce         1 2KZ      -0.316200
      5 CA           3.7090   -55.0460   -18.8810 cf         1 2KZ      -0.065200
      6 N            4.7960   -55.8160   -19.3170 nv         1 2KZ      -0.936000
      7 C            3.4170   -55.1860   -17.3870 c          1 2KZ       0.717200
      8 O            2.6180   -54.3830   -16.8750 o          1 2KZ      -0.743500
      9 OXT          4.0110   -56.1210   -16.8060 o          1 2KZ      -0.743500
     10 H2           3.3100   -54.2460   -20.7530 ha         1 2KZ       0.090000
     11 H            4.9240   -56.6260   -18.7300 hn         1 2KZ       0.388000
     12 H4           4.7480   -56.0800   -20.2900 hn         1 2KZ       0.388000
@<TRIPOS>BOND
     1     1     2 1   
     2     2     3 1   
     3     2     4 1   
     4     4     5 2   
     5     4    10 1   
     6     5     6 1   
     7     5     7 1   
     8     6    11 1   
     9     6    12 1   
    10     7     8 1   
    11     7     9 1   
@<TRIPOS>SUBSTRUCTURE
     1 2KZ         1 TEMP              0 ****  ****    0 ROOT
