@<TRIPOS>MOLECULE
2KZ
   12    11     1     0     0
SMALL
No Charge or Current Charge


@<TRIPOS>ATOM
      1 OD1          1.8130   -52.3780   -20.3540 o          1 2KZ      -0.768000
      2 CG           1.9290   -53.2340   -19.4900 c          1 2KZ       0.758200
      3 OD2          1.0690   -53.4220   -18.6480 o          1 2KZ      -0.768000
      4 CB           3.0940   -54.1720   -19.6360 ce         1 2KZ      -0.316200
      5 CA           3.6240   -55.1160   -18.7840 cf         1 2KZ      -0.065200
      6 N            4.6300   -55.8660   -19.3740 nv         1 2KZ      -0.936000
      7 C            3.2410   -55.3890   -17.2960 c          1 2KZ       0.717200
      8 O            2.6420   -54.5520   -16.6380 o          1 2KZ      -0.743500
      9 OXT          3.6860   -56.4070   -16.7760 o          1 2KZ      -0.743500
     10 H2           3.5620   -54.0750   -20.6150 ha         1 2KZ       0.090000
     11 H            5.0890   -56.6150   -18.8560 hn         1 2KZ       0.388000
     12 H4           4.9050   -55.7290   -20.3450 hn         1 2KZ       0.388000
@<TRIPOS>BOND
     1     1     2 1   
     2     2     3 1   
     3     2     4 1   
     4     4     5 2   
     5     4    10 1   
     6     5     6 1   
     7     5     7 1   
     8     6    11 1   
     9     6    12 1   
    10     7     8 1   
    11     7     9 1   
@<TRIPOS>SUBSTRUCTURE
     1 2KZ         1 TEMP              0 ****  ****    0 ROOT
