@<TRIPOS>MOLECULE
2L0
   87    87     1     0     0
SMALL
No Charge or Current Charge


@<TRIPOS>ATOM
      1 C7          -4.6000    -0.8360     0.9830 c          1 2L0       0.639100
      2 O8          -4.6270    -1.2220     2.1400 o          1 2L0      -0.549000
      3 O6          -5.6710    -0.4300     0.2510 os         1 2L0      -0.455100
      4 C5          -6.9590    -0.4700     0.8840 c3         1 2L0       0.231900
      5 C4          -8.0000     0.0220    -0.1130 ca         1 2L0      -0.101300
      6 C3          -8.3240     1.3920    -0.1860 ca         1 2L0      -0.084000
      7 C2          -9.2850     1.8460    -1.1060 ca         1 2L0      -0.115500
      8 C1          -9.9270     0.9340    -1.9600 ca         1 2L0      -0.098000
      9 C32         -9.6070    -0.4330    -1.8940 ca         1 2L0      -0.115500
     10 C31         -8.6460    -0.8870    -0.9740 ca         1 2L0      -0.084000
     11 N9          -3.4750    -0.7160     0.2200 ns         1 2L0      -0.494900
     12 C10         -2.1060    -1.0610     0.6580 c3         1 2L0       0.054700
     13 C15         -1.0760    -0.2990    -0.2280 c          1 2L0       0.598100
     14 O30         -1.3250     0.0630    -1.3720 o          1 2L0      -0.614100
     15 C11         -1.9170    -2.6060     0.6060 c3         1 2L0      -0.095400
     16 C12         -0.5680    -3.1640     1.1420 c3         1 2L0      -0.058700
     17 C13         -0.3300    -2.8250     2.6330 c3         1 2L0      -0.087600
     18 C14         -0.4760    -4.6890     0.9110 c3         1 2L0      -0.087600
     19 N16          0.1390    -0.0350     0.3710 ns         1 2L0      -0.480900
     20 C17          1.2790     0.6690    -0.2620 c3         1 2L0       0.027700
     21 C22          2.6030    -0.0760     0.0680 c          1 2L0       0.584100
     22 O23          2.6920    -0.9190     0.9520 o          1 2L0      -0.603100
     23 C18          1.3480     2.1500     0.2090 c3         1 2L0      -0.083400
     24 C19          0.1660     3.0610    -0.2290 c3         1 2L0      -0.057700
     25 C20          0.2240     4.4240     0.4970 c3         1 2L0      -0.092600
     26 C21          0.1110     3.2670    -1.7620 c3         1 2L0      -0.092600
     27 N24          3.6810     0.2800    -0.7160 ns         1 2L0      -0.508900
     28 C25          5.0410    -0.2640    -0.5860 c3         1 2L0       0.080700
     29 C26          5.3150    -1.2510    -1.7560 c3         1 2L0      -0.084400
     30 C27          6.6840    -1.9890    -1.7300 c3         1 2L0      -0.057700
     31 C29          6.9060    -2.8030    -0.4320 c3         1 2L0      -0.090600
     32 C28          6.8440    -2.8910    -2.9750 c3         1 2L0      -0.090600
     33 C33          6.1050     0.8780    -0.4290 c3         1 2L0       0.156300
     34 C34          5.8550     1.8600     0.7670 c3         1 2L0      -0.091700
     35 C45          6.9540     2.9620     0.8380 c3         1 2L0      -0.081100
     36 C35          5.7330     1.1090     2.1240 c3         1 2L0       0.163600
     37 O40          5.4040     2.0190     3.1820 oh         1 2L0      -0.661000
     38 O43          6.1750     1.6300    -1.6550 oh         1 2L0      -0.653000
     39 H1          -7.2070    -1.4920     1.1990 h1         1 2L0       0.056200
     40 H2          -6.9750     0.1710     1.7760 h1         1 2L0       0.056200
     41 H19         -7.8290     2.1050     0.4710 ha         1 2L0       0.115000
     42 H20         -9.5310     2.9040    -1.1570 ha         1 2L0       0.114000
     43 H21        -10.6710     1.2850    -2.6720 ha         1 2L0       0.113000
     44 H22        -10.1020    -1.1400    -2.5560 ha         1 2L0       0.114000
     45 H23         -8.4020    -1.9470    -0.9320 ha         1 2L0       0.115000
     46 H24         -3.6100    -0.3590    -0.7190 hn         1 2L0       0.344500
     47 H3          -1.9820    -0.7070     1.6890 h1         1 2L0       0.086700
     48 H25         -2.7300    -3.0800     1.1700 hc         1 2L0       0.057700
     49 H26         -2.0430    -2.9300    -0.4360 hc         1 2L0       0.057700
     50 H27          0.2480    -2.7160     0.5610 hc         1 2L0       0.050700
     51 H4          -1.1350    -3.2320     3.2580 hc         1 2L0       0.034700
     52 H5           0.6180    -3.2540     2.9790 hc         1 2L0       0.034700
     53 H6          -0.2810    -1.7440     2.7990 hc         1 2L0       0.034700
     54 H28         -1.2610    -5.2170     1.4670 hc         1 2L0       0.034700
     55 H29         -0.5880    -4.9290    -0.1530 hc         1 2L0       0.034700
     56 H30          0.4960    -5.0750     1.2420 hc         1 2L0       0.034700
     57 H31          0.2770    -0.4040     1.3050 hn         1 2L0       0.333500
     58 H7           1.1700     0.6320    -1.3530 h1         1 2L0       0.092700
     59 H32          1.4180     2.1560     1.3040 hc         1 2L0       0.050200
     60 H33          2.2790     2.6010    -0.1560 hc         1 2L0       0.050200
     61 H34         -0.7710     2.5800     0.0770 hc         1 2L0       0.055700
     62 H8           1.1420     4.9670     0.2390 hc         1 2L0       0.036200
     63 H9          -0.6330     5.0490     0.2200 hc         1 2L0       0.036200
     64 H10          0.2020     4.2870     1.5850 hc         1 2L0       0.036200
     65 H11          1.0330     3.7340    -2.1270 hc         1 2L0       0.036200
     66 H12         -0.0230     2.3160    -2.2900 hc         1 2L0       0.036200
     67 H13         -0.7300     3.9150    -2.0330 hc         1 2L0       0.036200
     68 H35          3.5100     0.9650    -1.4430 hn         1 2L0       0.314500
     69 H36          5.0760    -0.8650     0.3300 h1         1 2L0       0.083700
     70 H14          4.5160    -2.0040    -1.7630 hc         1 2L0       0.048700
     71 H15          5.2250    -0.7070    -2.7050 hc         1 2L0       0.048700
     72 H37          7.4800    -1.2350    -1.7870 hc         1 2L0       0.053700
     73 H38          7.8560    -3.3490    -0.4770 hc         1 2L0       0.034200
     74 H39          6.9460    -2.1480     0.4460 hc         1 2L0       0.034200
     75 H40          6.1000    -3.5320    -0.2860 hc         1 2L0       0.034200
     76 H16          6.7410    -2.3040    -3.8950 hc         1 2L0       0.034200
     77 H17          7.8330    -3.3640    -2.9870 hc         1 2L0       0.034200
     78 H18          6.0850    -3.6820    -2.9850 hc         1 2L0       0.034200
     79 H41          7.0760     0.3950    -0.2460 h1         1 2L0       0.077700
     80 H43          4.8980     2.3670     0.5940 hc         1 2L0       0.059700
     81 H44          7.0010     3.5470    -0.0870 hc         1 2L0       0.040367
     82 H45          6.7560     3.6690     1.6520 hc         1 2L0       0.040367
     83 H46          7.9410     2.5150     1.0100 hc         1 2L0       0.040367
     84 H47          4.9500     0.3450     2.0590 h1         1 2L0       0.024200
     85 H48          6.6800     0.5980     2.3420 h1         1 2L0       0.024200
     86 H49          5.3470     1.4900     4.0080 ho         1 2L0       0.444000
     87 H42          5.6050     2.4190    -1.5420 ho         1 2L0       0.438000
@<TRIPOS>BOND
     1     1     2 2   
     2     1     3 1   
     3     1    11 1   
     4     3     4 1   
     5     4     5 1   
     6     4    39 1   
     7     4    40 1   
     8     5     6 ar  
     9     5    10 ar  
    10     6     7 ar  
    11     6    41 1   
    12     7     8 ar  
    13     7    42 1   
    14     8     9 ar  
    15     8    43 1   
    16     9    10 ar  
    17     9    44 1   
    18    10    45 1   
    19    11    12 1   
    20    11    46 1   
    21    12    13 1   
    22    12    15 1   
    23    12    47 1   
    24    13    14 2   
    25    13    19 1   
    26    15    16 1   
    27    15    48 1   
    28    15    49 1   
    29    16    17 1   
    30    16    18 1   
    31    16    50 1   
    32    17    51 1   
    33    17    52 1   
    34    17    53 1   
    35    18    54 1   
    36    18    55 1   
    37    18    56 1   
    38    19    20 1   
    39    19    57 1   
    40    20    21 1   
    41    20    23 1   
    42    20    58 1   
    43    21    22 2   
    44    21    27 1   
    45    23    24 1   
    46    23    59 1   
    47    23    60 1   
    48    24    25 1   
    49    24    26 1   
    50    24    61 1   
    51    25    62 1   
    52    25    63 1   
    53    25    64 1   
    54    26    65 1   
    55    26    66 1   
    56    26    67 1   
    57    27    28 1   
    58    27    68 1   
    59    28    29 1   
    60    28    33 1   
    61    28    69 1   
    62    29    30 1   
    63    29    70 1   
    64    29    71 1   
    65    30    31 1   
    66    30    32 1   
    67    30    72 1   
    68    31    73 1   
    69    31    74 1   
    70    31    75 1   
    71    32    76 1   
    72    32    77 1   
    73    32    78 1   
    74    33    34 1   
    75    33    38 1   
    76    33    79 1   
    77    34    35 1   
    78    34    36 1   
    79    34    80 1   
    80    35    81 1   
    81    35    82 1   
    82    35    83 1   
    83    36    37 1   
    84    36    84 1   
    85    36    85 1   
    86    37    86 1   
    87    38    87 1   
@<TRIPOS>SUBSTRUCTURE
     1 2L0         1 TEMP              0 ****  ****    0 ROOT
