@<TRIPOS>MOLECULE
2L0
   87    87     1     0     0
SMALL
abcg2


@<TRIPOS>ATOM
      1 C7          -4.3320    -0.6340     0.9330 c          1 2L0       0.639100
      2 O8          -4.2890    -0.7890     2.1370 o          1 2L0      -0.549000
      3 O6          -5.4500    -0.3560     0.2540 os         1 2L0      -0.455100
      4 C5          -6.6620    -0.2670     1.0120 c3         1 2L0       0.231900
      5 C4          -7.7550     0.0960     0.0530 ca         1 2L0      -0.101300
      6 C3          -8.2580     1.3920     0.0120 ca         1 2L0      -0.084000
      7 C2          -9.2640     1.7310    -0.8850 ca         1 2L0      -0.115500
      8 C1          -9.7700     0.7750    -1.7540 ca         1 2L0      -0.098000
      9 C32         -9.2700    -0.5220    -1.7220 ca         1 2L0      -0.115500
     10 C31         -8.2690    -0.8590    -0.8220 ca         1 2L0      -0.084000
     11 N9          -3.2740    -0.6980     0.1040 ns         1 2L0      -0.494900
     12 C10         -1.9560    -1.0720     0.5630 c3         1 2L0       0.054700
     13 C15         -0.9430    -0.3900    -0.3490 c          1 2L0       0.598100
     14 O30         -1.0390    -0.4840    -1.5650 o          1 2L0      -0.614100
     15 C11         -1.7500    -2.5910     0.5200 c3         1 2L0      -0.095400
     16 C12         -0.3760    -3.0900     0.9740 c3         1 2L0      -0.058700
     17 C13         -0.0750    -2.7300     2.4260 c3         1 2L0      -0.087600
     18 C14         -0.2960    -4.6000     0.7740 c3         1 2L0      -0.087600
     19 N16          0.0350     0.2720     0.2830 ns         1 2L0      -0.480900
     20 C17          1.1820     0.8530    -0.3630 c3         1 2L0       0.027700
     21 C22          2.4480     0.1430     0.1190 c          1 2L0       0.584100
     22 O23          2.5040    -0.3710     1.2240 o          1 2L0      -0.603100
     23 C18          1.3080     2.3500    -0.0510 c3         1 2L0      -0.083400
     24 C19          0.1170     3.2050    -0.4850 c3         1 2L0      -0.057700
     25 C20          0.3440     4.6470    -0.0410 c3         1 2L0      -0.092600
     26 C21         -0.1210     3.1400    -1.9910 c3         1 2L0      -0.092600
     27 N24          3.4730     0.2040    -0.7470 ns         1 2L0      -0.508900
     28 C25          4.8040    -0.3350    -0.5160 c3         1 2L0       0.080700
     29 C26          5.2040    -1.1780    -1.7280 c3         1 2L0      -0.084400
     30 C27          6.5700    -1.8630    -1.6430 c3         1 2L0      -0.057700
     31 C29          6.7150    -2.7200    -0.3890 c3         1 2L0      -0.090600
     32 C28          6.7880    -2.7100    -2.8940 c3         1 2L0      -0.090600
     33 C33          5.7970     0.8030    -0.2170 c3         1 2L0       0.156300
     34 C34          5.5480     1.5470     1.1060 c3         1 2L0      -0.091700
     35 C45          6.5250     2.7140     1.2510 c3         1 2L0      -0.081100
     36 C35          5.6760     0.5920     2.2890 c3         1 2L0       0.163600
     37 O40          5.4810     1.3090     3.4890 oh         1 2L0      -0.661000
     38 O43          5.8550     1.6870    -1.3180 oh         1 2L0      -0.653000
     39 H1          -6.8700    -1.2260     1.4910 h1         1 2L0       0.056200
     40 H2          -6.5690     0.4910     1.7920 h1         1 2L0       0.056200
     41 H19         -7.8650     2.1410     0.6890 ha         1 2L0       0.115000
     42 H20         -9.6510     2.7420    -0.9030 ha         1 2L0       0.114000
     43 H21        -10.5540     1.0360    -2.4530 ha         1 2L0       0.113000
     44 H22         -9.6640    -1.2710    -2.3960 ha         1 2L0       0.114000
     45 H23         -7.8890    -1.8730    -0.7970 ha         1 2L0       0.115000
     46 H24         -3.4310    -0.6710    -0.8930 hn         1 2L0       0.344500
     47 H3          -1.8440    -0.7130     1.5870 h1         1 2L0       0.086700
     48 H25         -2.5210    -3.0490     1.1480 hc         1 2L0       0.057700
     49 H26         -1.9400    -2.9280    -0.5030 hc         1 2L0       0.057700
     50 H27          0.3970    -2.6320     0.3460 hc         1 2L0       0.050700
     51 H4          -0.8550    -3.1090     3.0910 hc         1 2L0       0.034700
     52 H5           0.8720    -3.1680     2.7410 hc         1 2L0       0.034700
     53 H6           0.0070    -1.6550     2.5860 hc         1 2L0       0.034700
     54 H28         -1.0360    -5.1140     1.3930 hc         1 2L0       0.034700
     55 H29         -0.4840    -4.8770    -0.2650 hc         1 2L0       0.034700
     56 H30          0.6880    -4.9820     1.0470 hc         1 2L0       0.034700
     57 H31          0.0320     0.2810     1.2910 hn         1 2L0       0.333500
     58 H7           1.0670     0.7070    -1.4380 h1         1 2L0       0.092700
     59 H32          1.4660     2.4690     1.0260 hc         1 2L0       0.050200
     60 H33          2.2140     2.7290    -0.5370 hc         1 2L0       0.050200
     61 H34         -0.7770     2.8320     0.0240 hc         1 2L0       0.055700
     62 H8           1.2170     5.0760    -0.5390 hc         1 2L0       0.036200
     63 H9          -0.5150     5.2730    -0.2840 hc         1 2L0       0.036200
     64 H10          0.5110     4.7130     1.0360 hc         1 2L0       0.036200
     65 H11          0.7770     3.4380    -2.5390 hc         1 2L0       0.036200
     66 H12         -0.4040     2.1420    -2.3260 hc         1 2L0       0.036200
     67 H13         -0.9250     3.8170    -2.2830 hc         1 2L0       0.036200
     68 H35          3.2750     0.5430    -1.6760 hn         1 2L0       0.314500
     69 H36          4.7380    -0.9930     0.3500 h1         1 2L0       0.083700
     70 H14          4.4360    -1.9480    -1.8580 hc         1 2L0       0.048700
     71 H15          5.1750    -0.5560    -2.6280 hc         1 2L0       0.048700
     72 H37          7.3500    -1.0950    -1.6280 hc         1 2L0       0.053700
     73 H38          7.6570    -3.2710    -0.4030 hc         1 2L0       0.034200
     74 H39          6.7090    -2.1280     0.5290 hc         1 2L0       0.034200
     75 H40          5.9050    -3.4500    -0.3180 hc         1 2L0       0.034200
     76 H16          6.7080    -2.1110    -3.8020 hc         1 2L0       0.034200
     77 H17          7.7760    -3.1740    -2.8890 hc         1 2L0       0.034200
     78 H18          6.0470    -3.5110    -2.9570 hc         1 2L0       0.034200
     79 H41          6.7980     0.3620    -0.1530 h1         1 2L0       0.077700
     80 H43          4.5260     1.9500     1.1010 hc         1 2L0       0.059700
     81 H44          6.4230     3.4290     0.4360 hc         1 2L0       0.040367
     82 H45          6.3580     3.2550     2.1800 hc         1 2L0       0.040367
     83 H46          7.5580     2.3560     1.2540 hc         1 2L0       0.040367
     84 H47          4.9390    -0.2130     2.2080 h1         1 2L0       0.024200
     85 H48          6.6730     0.1260     2.2610 h1         1 2L0       0.024200
     86 H49          5.5590     0.6890     4.2190 ho         1 2L0       0.444000
     87 H42          5.0510     2.2170    -1.3310 ho         1 2L0       0.438000
@<TRIPOS>BOND
     1     1     2 2   
     2     1     3 1   
     3     1    11 1   
     4     3     4 1   
     5     4     5 1   
     6     4    39 1   
     7     4    40 1   
     8     5     6 ar  
     9     5    10 ar  
    10     6     7 ar  
    11     6    41 1   
    12     7     8 ar  
    13     7    42 1   
    14     8     9 ar  
    15     8    43 1   
    16     9    10 ar  
    17     9    44 1   
    18    10    45 1   
    19    11    12 1   
    20    11    46 1   
    21    12    13 1   
    22    12    15 1   
    23    12    47 1   
    24    13    14 2   
    25    13    19 1   
    26    15    16 1   
    27    15    48 1   
    28    15    49 1   
    29    16    17 1   
    30    16    18 1   
    31    16    50 1   
    32    17    51 1   
    33    17    52 1   
    34    17    53 1   
    35    18    54 1   
    36    18    55 1   
    37    18    56 1   
    38    19    20 1   
    39    19    57 1   
    40    20    21 1   
    41    20    23 1   
    42    20    58 1   
    43    21    22 2   
    44    21    27 1   
    45    23    24 1   
    46    23    59 1   
    47    23    60 1   
    48    24    25 1   
    49    24    26 1   
    50    24    61 1   
    51    25    62 1   
    52    25    63 1   
    53    25    64 1   
    54    26    65 1   
    55    26    66 1   
    56    26    67 1   
    57    27    28 1   
    58    27    68 1   
    59    28    29 1   
    60    28    33 1   
    61    28    69 1   
    62    29    30 1   
    63    29    70 1   
    64    29    71 1   
    65    30    31 1   
    66    30    32 1   
    67    30    72 1   
    68    31    73 1   
    69    31    74 1   
    70    31    75 1   
    71    32    76 1   
    72    32    77 1   
    73    32    78 1   
    74    33    34 1   
    75    33    38 1   
    76    33    79 1   
    77    34    35 1   
    78    34    36 1   
    79    34    80 1   
    80    35    81 1   
    81    35    82 1   
    82    35    83 1   
    83    36    37 1   
    84    36    84 1   
    85    36    85 1   
    86    37    86 1   
    87    38    87 1   
@<TRIPOS>SUBSTRUCTURE
     1 2L0         1 TEMP              0 ****  ****    0 ROOT
