@<TRIPOS>MOLECULE
2L1
   34    36     1     0     0
SMALL
bcc


@<TRIPOS>ATOM
      1 CAH         -0.6950     1.9110    -1.1200 c6         1 2L1       0.168800
      2 CAG         -1.9050     2.0380    -0.2130 c6         1 2L1      -0.028100
      3 CAN         -2.5220     0.6960     0.0740 ca         1 2L1      -0.065300
      4 CAD         -3.8200     0.5980     0.5730 ca         1 2L1      -0.127000
      5 CAB         -4.3940    -0.6340     0.8410 ca         1 2L1      -0.127000
      6 CAC         -3.6660    -1.7960     0.6070 ca         1 2L1      -0.128000
      7 CAE         -2.3750    -1.7070     0.1130 ca         1 2L1      -0.125000
      8 CAO         -1.7920    -0.4690    -0.1540 ca         1 2L1      -0.073300
      9 CAI         -0.3940    -0.4150    -0.7100 c6         1 2L1       0.209100
     10 NAQ          0.1990     0.8990    -0.5930 n3         1 2L1      -0.710600
     11 CAJ          1.5090     0.9460    -1.2130 c3         1 2L1       0.253100
     12 CAP          2.4910     0.0640    -0.5180 cc         1 2L1      -0.233900
     13 NAL          3.1300    -0.9800    -1.1310 na         1 2L1      -0.303900
     14 CAF          3.9250    -1.5690    -0.2200 cc         1 2L1       0.393400
     15 NAK          3.8370    -0.9770     0.9440 nd         1 2L1      -0.679000
     16 CAM          2.9430     0.0470     0.7760 cd         1 2L1       0.345600
     17 CAA          2.5590     0.9560     1.8910 c3         1 2L1      -0.109400
     18 H1          -1.0150     1.6800    -2.1510 h1         1 2L1       0.033200
     19 H2          -0.1660     2.8660    -1.1610 h1         1 2L1       0.033200
     20 H3          -1.6000     2.5090     0.7260 hc         1 2L1       0.056200
     21 H4          -2.6450     2.7010    -0.6680 hc         1 2L1       0.056200
     22 H5          -4.3880     1.5060     0.7480 ha         1 2L1       0.127000
     23 H6          -5.4040    -0.6910     1.2270 ha         1 2L1       0.130000
     24 H7          -4.1030    -2.7650     0.8110 ha         1 2L1       0.130000
     25 H8          -1.8060    -2.6130    -0.0660 ha         1 2L1       0.128000
     26 H9           0.2290    -1.1390    -0.1780 h1         1 2L1       0.042700
     27 H10         -0.4200    -0.7470    -1.7650 h1         1 2L1       0.042700
     28 H12          1.4680     0.6720    -2.2820 h1         1 2L1       0.037200
     29 H13          1.8560     1.9820    -1.1770 h1         1 2L1       0.037200
     30 H14          3.0300    -1.2540    -2.0950 hn         1 2L1       0.296700
     31 H15          4.5460    -2.4200    -0.4570 h5         1 2L1       0.053100
     32 H17          2.0160     0.4230     2.6730 hc         1 2L1       0.046033
     33 H18          3.4360     1.4080     2.3570 hc         1 2L1       0.046033
     34 H19          1.9120     1.7560     1.5360 hc         1 2L1       0.046033
@<TRIPOS>BOND
     1     1     2 1   
     2     1    10 1   
     3     1    18 1   
     4     1    19 1   
     5     2     3 1   
     6     2    20 1   
     7     2    21 1   
     8     3     4 ar  
     9     3     8 ar  
    10     4     5 ar  
    11     4    22 1   
    12     5     6 ar  
    13     5    23 1   
    14     6     7 ar  
    15     6    24 1   
    16     7     8 ar  
    17     7    25 1   
    18     8     9 1   
    19     9    10 1   
    20     9    26 1   
    21     9    27 1   
    22    10    11 1   
    23    11    12 1   
    24    11    28 1   
    25    11    29 1   
    26    12    13 1   
    27    12    16 2   
    28    13    14 1   
    29    13    30 1   
    30    14    15 2   
    31    14    31 1   
    32    15    16 1   
    33    16    17 1   
    34    17    32 1   
    35    17    33 1   
    36    17    34 1   
@<TRIPOS>SUBSTRUCTURE
     1 2L1         1 TEMP              0 ****  ****    0 ROOT
