@<TRIPOS>MOLECULE
2L1
   34    36     1     0     0
SMALL
No Charge or Current Charge


@<TRIPOS>ATOM
      1 CAH         -0.7160     1.9700    -1.0600 c6         1 2L1       0.168800
      2 CAG         -2.0140     2.0300    -0.2220 c6         1 2L1      -0.028100
      3 CAN         -2.6210     0.6520     0.0510 ca         1 2L1      -0.065300
      4 CAD         -3.9430     0.5470     0.5240 ca         1 2L1      -0.109000
      5 CAB         -4.5000    -0.7140     0.7950 ca         1 2L1      -0.109000
      6 CAC         -3.7360    -1.8760     0.5980 ca         1 2L1      -0.110000
      7 CAE         -2.4140    -1.7760     0.1310 ca         1 2L1      -0.107000
      8 CAO         -1.8490    -0.5150    -0.1410 ca         1 2L1      -0.073300
      9 CAI         -0.4100    -0.4250    -0.6670 c6         1 2L1       0.209100
     10 NAQ          0.2060     0.9270    -0.5480 n3         1 2L1      -0.710600
     11 CAJ          1.5470     1.0050    -1.1650 c3         1 2L1       0.253100
     12 CAP          2.5350     0.0630    -0.5270 cc         1 2L1      -0.219300
     13 NAL          3.0940    -1.0460    -1.1320 na         1 2L1      -0.303500
     14 CAF          3.9380    -1.6410    -0.2270 cc         1 2L1       0.393400
     15 NAK          3.9440    -0.9680     0.9140 nd         1 2L1      -0.679000
     16 CAM          3.0730     0.0890     0.7350 cd         1 2L1       0.280300
     17 CAA          2.8080     1.0880     1.8270 c3         1 2L1      -0.109400
     18 H1          -0.9740     1.7620    -2.1090 h1         1 2L1       0.033200
     19 H2          -0.2360     2.9590    -1.0340 h1         1 2L1       0.033200
     20 H3          -1.7950     2.5150     0.7390 hc         1 2L1       0.056200
     21 H4          -2.7450     2.6720    -0.7310 hc         1 2L1       0.056200
     22 H5          -4.5390     1.4430     0.6820 ha         1 2L1       0.109000
     23 H6          -5.5230    -0.7910     1.1580 ha         1 2L1       0.112000
     24 H7          -4.1670    -2.8530     0.8070 ha         1 2L1       0.112000
     25 H8          -1.8280    -2.6800    -0.0220 ha         1 2L1       0.110000
     26 H9           0.1990    -1.1630    -0.1250 h1         1 2L1       0.042700
     27 H10         -0.4200    -0.7390    -1.7220 h1         1 2L1       0.042700
     28 H12          1.4840     0.7860    -2.2400 h1         1 2L1       0.037200
     29 H13          1.9430     2.0250    -1.0670 h1         1 2L1       0.037200
     30 H14          2.9260    -1.3790    -2.0730 hn         1 2L1       0.347000
     31 H15          4.5060    -2.5360    -0.4550 h5         1 2L1       0.053100
     32 H17          1.7620     1.0380     2.1510 hc         1 2L1       0.046033
     33 H18          3.4410     0.9060     2.7030 hc         1 2L1       0.046033
     34 H19          3.0030     2.1080     1.4770 hc         1 2L1       0.046033
@<TRIPOS>BOND
     1     1     2 1   
     2     1    10 1   
     3     1    18 1   
     4     1    19 1   
     5     2     3 1   
     6     2    20 1   
     7     2    21 1   
     8     3     4 ar  
     9     3     8 ar  
    10     4     5 ar  
    11     4    22 1   
    12     5     6 ar  
    13     5    23 1   
    14     6     7 ar  
    15     6    24 1   
    16     7     8 ar  
    17     7    25 1   
    18     8     9 1   
    19     9    10 1   
    20     9    26 1   
    21     9    27 1   
    22    10    11 1   
    23    11    12 1   
    24    11    28 1   
    25    11    29 1   
    26    12    13 1   
    27    12    16 2   
    28    13    14 1   
    29    13    30 1   
    30    14    15 2   
    31    14    31 1   
    32    15    16 1   
    33    16    17 1   
    34    17    32 1   
    35    17    33 1   
    36    17    34 1   
@<TRIPOS>SUBSTRUCTURE
     1 2L1         1 TEMP              0 ****  ****    0 ROOT
