@<TRIPOS>MOLECULE
2L2
   36    38     1     0     0
SMALL
No Charge or Current Charge


@<TRIPOS>ATOM
      1 CAH          0.3010     1.1970    -0.6160 c6         1 2L2       0.169800
      2 CAG         -0.7690     1.8400     0.2930 c6         1 2L2      -0.032100
      3 CAO         -2.0900     1.0690     0.3070 ca         1 2L2      -0.026300
      4 CAE         -3.2450     1.6900     0.8170 ca         1 2L2      -0.151000
      5 CAC         -4.4650     1.0000     0.8480 ca         1 2L2      -0.069000
      6 CAD         -4.5340    -0.3160     0.3660 ca         1 2L2      -0.181000
      7 CAM         -3.3900    -0.9490    -0.1420 ca         1 2L2       0.286000
      8 NAB         -3.5170    -2.2330    -0.6130 nv         1 2L2      -1.067000
      9 CAQ         -2.1530    -0.2630    -0.1670 ca         1 2L2      -0.134300
     10 CAJ         -0.8900    -0.9340    -0.7320 c6         1 2L2       0.222100
     11 NAR          0.3870    -0.2640    -0.3720 n3         1 2L2      -0.713600
     12 CAI          1.5500    -0.9040    -1.0230 c3         1 2L2       0.255100
     13 CAP          2.8650    -0.3880    -0.5030 cc         1 2L2      -0.218300
     14 NAL          3.7930     0.3290    -1.2350 na         1 2L2      -0.303500
     15 CAF          4.8530     0.6170    -0.4100 cc         1 2L2       0.392400
     16 NAK          4.6450     0.1190     0.8010 nd         1 2L2      -0.679000
     17 CAN          3.4140    -0.5020     0.7490 cd         1 2L2       0.280300
     18 CAA          2.8260    -1.1890     1.9510 c3         1 2L2      -0.113400
     19 H1           0.0460     1.3910    -1.6690 h1         1 2L2       0.034700
     20 H2           1.2620     1.6920    -0.4180 h1         1 2L2       0.034700
     21 H3          -0.3800     1.8910     1.3180 hc         1 2L2       0.058700
     22 H4          -0.9370     2.8770    -0.0250 hc         1 2L2       0.058700
     23 H5          -3.1950     2.7110     1.1910 ha         1 2L2       0.113000
     24 H6          -5.3560     1.4850     1.2430 ha         1 2L2       0.110000
     25 H7          -5.4840    -0.8420     0.3890 ha         1 2L2       0.110000
     26 H8          -4.4390    -2.6590    -0.6850 hn         1 2L2       0.440500
     27 H9          -2.7470    -2.6830    -1.1010 hn         1 2L2       0.440500
     28 H10         -0.8550    -1.9760    -0.3810 h1         1 2L2       0.033700
     29 H11         -0.9940    -0.9710    -1.8270 h1         1 2L2       0.033700
     30 H13          1.5230    -1.9890    -0.8480 h1         1 2L2       0.035700
     31 H14          1.5060    -0.7530    -2.1110 h1         1 2L2       0.035700
     32 H15          3.7240     0.6050    -2.2070 hn         1 2L2       0.347000
     33 H16          5.7200     1.1750    -0.7430 h5         1 2L2       0.053100
     34 H18          3.5410    -1.2330     2.7810 hc         1 2L2       0.047367
     35 H19          1.9340    -0.6580     2.3020 hc         1 2L2       0.047367
     36 H20          2.5310    -2.2160     1.7070 hc         1 2L2       0.047367
@<TRIPOS>BOND
     1     1     2 1   
     2     1    11 1   
     3     1    19 1   
     4     1    20 1   
     5     2     3 1   
     6     2    21 1   
     7     2    22 1   
     8     3     4 ar  
     9     3     9 ar  
    10     4     5 ar  
    11     4    23 1   
    12     5     6 ar  
    13     5    24 1   
    14     6     7 ar  
    15     6    25 1   
    16     7     8 1   
    17     7     9 ar  
    18     8    26 1   
    19     8    27 1   
    20     9    10 1   
    21    10    11 1   
    22    10    28 1   
    23    10    29 1   
    24    11    12 1   
    25    12    13 1   
    26    12    30 1   
    27    12    31 1   
    28    13    14 1   
    29    13    17 2   
    30    14    15 1   
    31    14    32 1   
    32    15    16 2   
    33    15    33 1   
    34    16    17 1   
    35    17    18 1   
    36    18    34 1   
    37    18    35 1   
    38    18    36 1   
@<TRIPOS>SUBSTRUCTURE
     1 2L2         1 TEMP              0 ****  ****    0 ROOT
