@<TRIPOS>MOLECULE
2L2
   36    38     1     0     0
SMALL
abcg2


@<TRIPOS>ATOM
      1 CAH          0.2640     1.1570    -0.6350 c6         1 2L2       0.169800
      2 CAG         -0.7280     1.7670     0.3360 c6         1 2L2      -0.032100
      3 CAO         -2.0290     1.0110     0.3540 ca         1 2L2      -0.026300
      4 CAE         -3.1750     1.6000     0.8880 ca         1 2L2      -0.151000
      5 CAC         -4.3710     0.9040     0.8950 ca         1 2L2      -0.069000
      6 CAD         -4.4440    -0.3720     0.3580 ca         1 2L2      -0.181000
      7 CAM         -3.3070    -0.9760    -0.1830 ca         1 2L2       0.286000
      8 NAB         -3.3660    -2.2680    -0.6770 nv         1 2L2      -1.067000
      9 CAQ         -2.0840    -0.2800    -0.1640 ca         1 2L2      -0.134300
     10 CAJ         -0.8590    -0.9480    -0.7270 c6         1 2L2       0.222100
     11 NAR          0.3650    -0.2630    -0.3770 n3         1 2L2      -0.713600
     12 CAI          1.5050    -0.8900    -1.0160 c3         1 2L2       0.255100
     13 CAP          2.8020    -0.3870    -0.4780 cc         1 2L2      -0.218300
     14 NAL          3.7590     0.2080    -1.2550 na         1 2L2      -0.303500
     15 CAF          4.7910     0.5390    -0.4580 cc         1 2L2       0.392400
     16 NAK          4.5610     0.2000     0.7850 nd         1 2L2      -0.679000
     17 CAN          3.3210    -0.3810     0.7910 cd         1 2L2       0.280300
     18 CAA          2.6950    -0.9100     2.0350 c3         1 2L2      -0.113400
     19 H1          -0.0400     1.3620    -1.6760 h1         1 2L2       0.034700
     20 H2           1.2410     1.6200    -0.4910 h1         1 2L2       0.034700
     21 H3          -0.2900     1.7660     1.3390 hc         1 2L2       0.058700
     22 H4          -0.9100     2.8120     0.0780 hc         1 2L2       0.058700
     23 H5          -3.1230     2.6050     1.2900 ha         1 2L2       0.113000
     24 H6          -5.2630     1.3590     1.3070 ha         1 2L2       0.110000
     25 H7          -5.3870    -0.9060     0.3460 ha         1 2L2       0.110000
     26 H8          -4.2990    -2.6050    -0.8570 hn         1 2L2       0.440500
     27 H9          -2.7640    -2.4700    -1.4600 hn         1 2L2       0.440500
     28 H10         -0.7970    -1.9750    -0.3510 h1         1 2L2       0.033700
     29 H11         -0.9730    -1.0360    -1.8270 h1         1 2L2       0.033700
     30 H13          1.4310    -1.9670    -0.8390 h1         1 2L2       0.035700
     31 H14          1.4880    -0.7640    -2.1130 h1         1 2L2       0.035700
     32 H15          3.7030     0.3710    -2.2480 hn         1 2L2       0.347000
     33 H16          5.6790     1.0240    -0.8320 h5         1 2L2       0.053100
     34 H18          3.2550    -1.7560     2.4390 hc         1 2L2       0.047367
     35 H19          2.6550    -0.1470     2.8150 hc         1 2L2       0.047367
     36 H20          1.6740    -1.2360     1.8430 hc         1 2L2       0.047367
@<TRIPOS>BOND
     1     1     2 1   
     2     1    11 1   
     3     1    19 1   
     4     1    20 1   
     5     2     3 1   
     6     2    21 1   
     7     2    22 1   
     8     3     4 ar  
     9     3     9 ar  
    10     4     5 ar  
    11     4    23 1   
    12     5     6 ar  
    13     5    24 1   
    14     6     7 ar  
    15     6    25 1   
    16     7     8 1   
    17     7     9 ar  
    18     8    26 1   
    19     8    27 1   
    20     9    10 1   
    21    10    11 1   
    22    10    28 1   
    23    10    29 1   
    24    11    12 1   
    25    12    13 1   
    26    12    30 1   
    27    12    31 1   
    28    13    14 1   
    29    13    17 2   
    30    14    15 1   
    31    14    32 1   
    32    15    16 2   
    33    15    33 1   
    34    16    17 1   
    35    17    18 1   
    36    18    34 1   
    37    18    35 1   
    38    18    36 1   
@<TRIPOS>SUBSTRUCTURE
     1 2L2         1 TEMP              0 ****  ****    0 ROOT
