@<TRIPOS>MOLECULE
2L3
   26    27     1     0     0
SMALL
No Charge or Current Charge


@<TRIPOS>ATOM
      1 OAF         -2.5980    -1.2100    -1.2370 o          1 2L3      -0.672200
      2 SAQ         -2.0300     0.0670    -0.7860 s6         1 2L3       1.308600
      3 OAD         -0.9460     0.5770    -1.6340 o          1 2L3      -0.672200
      4 OAE         -3.0350     1.0760    -0.4260 o          1 2L3      -0.672200
      5 CAP         -1.2090    -0.3130     0.8060 c6         1 2L3      -0.383000
      6 CAA         -2.2360    -1.0060     1.7710 c3         1 2L3      -0.040100
      7 CAK         -0.6350     0.9830     1.4880 c6         1 2L3      -0.134400
      8 CAL          0.5460     1.6170     0.7430 c          1 2L3       0.618700
      9 OAB          0.6190     2.8290     0.5620 o          1 2L3      -0.540100
     10 CAN          1.5970     0.6490     0.2650 ca         1 2L3      -0.089600
     11 CAI          2.8910     1.1220    -0.0460 ca         1 2L3      -0.077000
     12 CAG          3.8910     0.2360    -0.4740 ca         1 2L3      -0.116000
     13 CAH          3.6070    -1.1300    -0.5990 ca         1 2L3      -0.120000
     14 CAJ          2.3220    -1.6120    -0.3030 ca         1 2L3      -0.074000
     15 CAO          1.2990    -0.7350     0.1290 ca         1 2L3      -0.113600
     16 CAM         -0.0950    -1.2920     0.3980 c          1 2L3       0.615700
     17 OAC         -0.3130    -2.4950     0.3010 o          1 2L3      -0.530100
     18 H1          -2.6940    -1.9000     1.3300 hc         1 2L3       0.037367
     19 H2          -1.7500    -1.3210     2.7030 hc         1 2L3       0.037367
     20 H3          -3.0500    -0.3240     2.0450 hc         1 2L3       0.037367
     21 H4          -1.4010     1.7400     1.7020 hc         1 2L3       0.064700
     22 H5          -0.2120     0.6480     2.4450 hc         1 2L3       0.064700
     23 H8           3.1270     2.1800     0.0520 ha         1 2L3       0.125000
     24 H9           4.8860     0.6090    -0.7060 ha         1 2L3       0.099000
     25 H10          4.3820    -1.8180    -0.9310 ha         1 2L3       0.100000
     26 H11          2.1230    -2.6760    -0.4190 ha         1 2L3       0.128000
@<TRIPOS>BOND
     1     1     2 1   
     2     2     3 1   
     3     2     4 1   
     4     2     5 1   
     5     5     6 1   
     6     5     7 1   
     7     5    16 1   
     8     6    18 1   
     9     6    19 1   
    10     6    20 1   
    11     7     8 1   
    12     7    21 1   
    13     7    22 1   
    14     8     9 2   
    15     8    10 1   
    16    10    11 ar  
    17    10    15 ar  
    18    11    12 ar  
    19    11    23 1   
    20    12    13 ar  
    21    12    24 1   
    22    13    14 ar  
    23    13    25 1   
    24    14    15 ar  
    25    14    26 1   
    26    15    16 1   
    27    16    17 2   
@<TRIPOS>SUBSTRUCTURE
     1 2L3         1 TEMP              0 ****  ****    0 ROOT
