@<TRIPOS>MOLECULE
2L3
   26    27     1     0     0
SMALL
abcg2


@<TRIPOS>ATOM
      1 OAF         -2.1090    -1.1750    -1.4650 o          1 2L3      -0.672200
      2 SAQ         -1.8540     0.1070    -0.7880 s6         1 2L3       1.308600
      3 OAD         -0.7970     0.9120    -1.4290 o          1 2L3      -0.672200
      4 OAE         -3.0730     0.8780    -0.4940 o          1 2L3      -0.672200
      5 CAP         -1.1570    -0.3410     0.8670 c6         1 2L3      -0.383000
      6 CAA         -2.2560    -0.9710     1.7090 c3         1 2L3      -0.040100
      7 CAK         -0.6370     0.9430     1.5050 c6         1 2L3      -0.134400
      8 CAL          0.5520     1.5560     0.8200 c          1 2L3       0.618700
      9 OAB          0.7340     2.7540     0.8040 o          1 2L3      -0.540100
     10 CAN          1.5630     0.6110     0.2810 ca         1 2L3      -0.089600
     11 CAI          2.8010     1.0930    -0.1280 ca         1 2L3      -0.077000
     12 CAG          3.7650     0.2220    -0.6100 ca         1 2L3      -0.116000
     13 CAH          3.4990    -1.1400    -0.6820 ca         1 2L3      -0.120000
     14 CAJ          2.2700    -1.6290    -0.2730 ca         1 2L3      -0.074000
     15 CAO          1.2910    -0.7590     0.2040 ca         1 2L3      -0.113600
     16 CAM         -0.0250    -1.3160     0.6110 c          1 2L3       0.615700
     17 OAC         -0.1840    -2.5100     0.7240 o          1 2L3      -0.530100
     18 H1          -2.6870    -1.8460     1.2280 hc         1 2L3       0.037367
     19 H2          -1.8590    -1.2770     2.6780 hc         1 2L3       0.037367
     20 H3          -3.0520    -0.2500     1.8870 hc         1 2L3       0.037367
     21 H4          -1.4350     1.6810     1.5950 hc         1 2L3       0.064700
     22 H5          -0.3130     0.7100     2.5280 hc         1 2L3       0.064700
     23 H8           3.0120     2.1520    -0.0660 ha         1 2L3       0.125000
     24 H9           4.7260     0.6040    -0.9290 ha         1 2L3       0.099000
     25 H10          4.2510    -1.8210    -1.0600 ha         1 2L3       0.100000
     26 H11          2.0620    -2.6880    -0.3370 ha         1 2L3       0.128000
@<TRIPOS>BOND
     1     1     2 1   
     2     2     3 1   
     3     2     4 1   
     4     2     5 1   
     5     5     6 1   
     6     5     7 1   
     7     5    16 1   
     8     6    18 1   
     9     6    19 1   
    10     6    20 1   
    11     7     8 1   
    12     7    21 1   
    13     7    22 1   
    14     8     9 2   
    15     8    10 1   
    16    10    11 ar  
    17    10    15 ar  
    18    11    12 ar  
    19    11    23 1   
    20    12    13 ar  
    21    12    24 1   
    22    13    14 ar  
    23    13    25 1   
    24    14    15 ar  
    25    14    26 1   
    26    15    16 1   
    27    16    17 2   
@<TRIPOS>SUBSTRUCTURE
     1 2L3         1 TEMP              0 ****  ****    0 ROOT
