@<TRIPOS>MOLECULE
2L5
   22    22     1     0     0
SMALL
No Charge or Current Charge


@<TRIPOS>ATOM
      1 Cl           0.8120    -2.2570    -0.1400 cl         1 2L5      -0.206000
      2 C15          1.5780    -0.6710    -0.0200 ca         1 2L5       0.119000
      3 C19          2.9340    -0.5600    -0.3770 ca         1 2L5      -0.112000
      4 C18          3.5900     0.6790    -0.2910 ca         1 2L5      -0.131000
      5 C17          2.8900     1.8100     0.1560 ca         1 2L5      -0.116000
      6 C16          1.5350     1.7040     0.5140 ca         1 2L5      -0.120000
      7 C14          0.8630     0.4660     0.4270 ca         1 2L5      -0.033300
      8 C13         -0.6140     0.3860     0.8250 c3         1 2L5      -0.072100
      9 C12         -1.5890     0.3700    -0.3830 c3         1 2L5       0.028500
     10 N4          -1.3780     1.5960    -1.2370 n8         1 2L5      -0.995200
     11 C11         -3.0740     0.0870     0.0990 c          1 2L5       0.723000
     12 O4          -3.6410     0.9340     0.7790 o          1 2L5      -0.728000
     13 H1           3.4770    -1.4370    -0.7200 ha         1 2L5       0.113000
     14 H2           4.6390     0.7610    -0.5680 ha         1 2L5       0.100000
     15 H3           3.3970     2.7700     0.2250 ha         1 2L5       0.101000
     16 H4           1.0050     2.5890     0.8600 ha         1 2L5       0.116000
     17 H5          -0.7870    -0.5130     1.4290 hc         1 2L5       0.061700
     18 H6          -0.8740     1.2250     1.4820 hc         1 2L5       0.061700
     19 H7          -1.3100    -0.4910    -1.0050 h1         1 2L5       0.053700
     20 H8          -1.7140     2.4180    -0.7210 hn         1 2L5       0.380500
     21 H9          -0.3690     1.7620    -1.3320 hn         1 2L5       0.380500
     22 OXT         -3.6220    -0.9400    -0.2810 o          1 2L5      -0.728000
@<TRIPOS>BOND
     1     1     2 1   
     2     2     3 ar  
     3     2     7 ar  
     4     3     4 ar  
     5     3    13 1   
     6     4     5 ar  
     7     4    14 1   
     8     5     6 ar  
     9     5    15 1   
    10     6     7 ar  
    11     6    16 1   
    12     7     8 1   
    13     8     9 1   
    14     8    17 1   
    15     8    18 1   
    16     9    10 1   
    17     9    11 1   
    18     9    19 1   
    19    10    20 1   
    20    10    21 1   
    21    11    12 1   
    22    11    22 1   
@<TRIPOS>SUBSTRUCTURE
     1 2L5         1 TEMP              0 ****  ****    0 ROOT
