@<TRIPOS>MOLECULE
2L5
   22    22     1     0     0
SMALL
abcg2


@<TRIPOS>ATOM
      1 CL           0.8930    -2.2590    -0.1760 cl         1 2L5      -0.206000
      2 C15          1.6070    -0.6780    -0.0290 ca         1 2L5       0.119000
      3 C19          2.9360    -0.5310    -0.4000 ca         1 2L5      -0.112000
      4 C18          3.5410     0.7130    -0.2980 ca         1 2L5      -0.131000
      5 C17          2.8100     1.7920     0.1850 ca         1 2L5      -0.116000
      6 C16          1.4840     1.6190     0.5520 ca         1 2L5      -0.120000
      7 C14          0.8440     0.3830     0.4570 ca         1 2L5      -0.033300
      8 C13         -0.6070     0.2580     0.8090 c3         1 2L5      -0.072100
      9 C12         -1.5370     0.3830    -0.4250 c3         1 2L5       0.028500
     10 N4          -1.3590     1.5930    -1.2000 n8         1 2L5      -0.995200
     11 C11         -2.9910     0.2610     0.0870 c          1 2L5       0.723000
     12 O4          -3.6510     1.3140     0.1810 o          1 2L5      -0.728000
     13 H1           3.4940    -1.3830    -0.7650 ha         1 2L5       0.113000
     14 H2           4.5760     0.8330    -0.5870 ha         1 2L5       0.100000
     15 H3           3.2710     2.7660     0.2740 ha         1 2L5       0.101000
     16 H4           0.9240     2.4640     0.9340 ha         1 2L5       0.116000
     17 H5          -0.8040    -0.6950     1.3020 hc         1 2L5       0.061700
     18 H6          -0.8610     1.0480     1.5220 hc         1 2L5       0.061700
     19 H7          -1.3360    -0.4740    -1.0760 h1         1 2L5       0.053700
     20 H8          -1.7480     2.3750    -0.6880 hn         1 2L5       0.380500
     21 H9          -0.3760     1.7880    -1.3490 hn         1 2L5       0.380500
     22 OXT         -3.3620    -0.8840     0.4120 o          1 2L5      -0.728000
@<TRIPOS>BOND
     1     1     2 1   
     2     2     3 ar  
     3     2     7 ar  
     4     3     4 ar  
     5     3    13 1   
     6     4     5 ar  
     7     4    14 1   
     8     5     6 ar  
     9     5    15 1   
    10     6     7 ar  
    11     6    16 1   
    12     7     8 1   
    13     8     9 1   
    14     8    17 1   
    15     8    18 1   
    16     9    10 1   
    17     9    11 1   
    18     9    19 1   
    19    10    20 1   
    20    10    21 1   
    21    11    12 1   
    22    11    22 1   
@<TRIPOS>SUBSTRUCTURE
     1 2L5         1 TEMP              0 ****  ****    0 ROOT
