@<TRIPOS>MOLECULE
2L6
   32    34     1     0     0
SMALL
No Charge or Current Charge


@<TRIPOS>ATOM
      1 N5          -3.0870     0.1230    -0.9470 n7         1 2L6      -0.871400
      2 C30         -3.5630    -1.1570    -0.3600 c5         1 2L6       0.170800
      3 C29         -2.8700    -1.2910     1.0320 c5         1 2L6      -0.097400
      4 C34         -2.2150     0.0990     1.2480 c5         1 2L6      -0.063400
      5 C35         -1.8360     0.4690    -0.2120 c5         1 2L6       0.129400
      6 C31         -0.5040    -0.2880    -0.6640 c          1 2L6       0.553000
      7 O3          -0.4380    -1.3080    -1.3460 o          1 2L6      -0.585000
      8 N3           0.6500     0.4270    -0.2660 n          1 2L6      -0.359800
      9 C26         -1.7010     1.9820    -0.3460 c2         1 2L6      -0.189200
     10 C28         -0.5270     2.5560    -0.0230 c2         1 2L6      -0.240200
     11 C27          0.6130     1.6870     0.5010 c5         1 2L6       0.141900
     12 C24          1.9890     2.2970     0.1310 c5         1 2L6      -0.091400
     13 C9           2.8950     1.0400     0.1860 c5         1 2L6      -0.075400
     14 C10          2.0390    -0.0120    -0.5890 c5         1 2L6      -0.030300
     15 C20          2.4300    -1.4590    -0.1280 c          1 2L6       0.725000
     16 O6           2.0900    -1.8570     0.9810 o          1 2L6      -0.723000
     17 H12         -4.6580    -1.1500    -0.2690 h1         1 2L6       0.028700
     18 H13         -3.2910    -2.0040    -1.0050 h1         1 2L6       0.028700
     19 H14         -3.5800    -1.5450     1.8260 hc         1 2L6       0.056700
     20 H15         -2.1140    -2.0850     1.0120 hc         1 2L6       0.056700
     21 H16         -2.9350     0.8110     1.6690 hc         1 2L6       0.056200
     22 H17         -1.3570     0.0600     1.9270 hc         1 2L6       0.056200
     23 H18         -2.5310     2.5920    -0.7050 ha         1 2L6       0.175000
     24 H19         -0.4030     3.6360    -0.1130 ha         1 2L6       0.169000
     25 H20          0.5310     1.4920     1.5790 h1         1 2L6       0.064700
     26 H21          1.9850     2.7350    -0.8740 hc         1 2L6       0.032200
     27 H22          2.3040     3.0790     0.8320 hc         1 2L6       0.032200
     28 H23          3.8760     1.2030    -0.2760 hc         1 2L6       0.046200
     29 H24          3.0710     0.7360     1.2250 hc         1 2L6       0.046200
     30 H25          2.2090     0.0660    -1.6700 h1         1 2L6       0.055700
     31 H2          -2.8870     0.0010    -1.9480 hn         1 2L6       0.425000
     32 OXT          3.0570    -2.1720    -0.9010 o          1 2L6      -0.723000
@<TRIPOS>BOND
     1     1     2 1   
     2     1     5 1   
     3     1    31 1   
     4     2     3 1   
     5     2    17 1   
     6     2    18 1   
     7     3     4 1   
     8     3    19 1   
     9     3    20 1   
    10     4     5 1   
    11     4    21 1   
    12     4    22 1   
    13     5     6 1   
    14     5     9 1   
    15     6     7 2   
    16     6     8 1   
    17     8    11 1   
    18     8    14 1   
    19     9    10 2   
    20     9    23 1   
    21    10    11 1   
    22    10    24 1   
    23    11    12 1   
    24    11    25 1   
    25    12    13 1   
    26    12    26 1   
    27    12    27 1   
    28    13    14 1   
    29    13    28 1   
    30    13    29 1   
    31    14    15 1   
    32    14    30 1   
    33    15    16 1   
    34    15    32 1   
@<TRIPOS>SUBSTRUCTURE
     1 2L6         1 TEMP              0 ****  ****    0 ROOT
