@<TRIPOS>MOLECULE
2L6
   32    34     1     0     0
SMALL
bcc


@<TRIPOS>ATOM
      1 N5          -2.9300     0.0970    -1.0140 n7         1 2L6      -0.816200
      2 C30         -3.5550    -1.1130    -0.4650 c5         1 2L6       0.170800
      3 C29         -2.8310    -1.4070     0.8530 c5         1 2L6      -0.097400
      4 C34         -2.1840    -0.0730     1.2000 c5         1 2L6      -0.063400
      5 C35         -1.8120     0.5040    -0.1830 c5         1 2L6       0.129400
      6 C31         -0.4920    -0.1370    -0.6330 c          1 2L6       0.695500
      7 O3          -0.4760    -1.1560    -1.3170 o          1 2L6      -0.660500
      8 N3           0.6240     0.4780    -0.2400 n          1 2L6      -0.426800
      9 C26         -1.6710     2.0000    -0.1220 c2         1 2L6      -0.139200
     10 C28         -0.5220     2.5780     0.2000 c2         1 2L6      -0.190200
     11 C27          0.6910     1.7500     0.4550 c5         1 2L6       0.141900
     12 C24          2.0170     2.3080    -0.0530 c5         1 2L6      -0.091400
     13 C9           2.8950     1.0600    -0.0910 c5         1 2L6      -0.075400
     14 C10          1.9380    -0.0700    -0.5220 c5         1 2L6      -0.030300
     15 C20          2.2280    -1.3690     0.2550 c          1 2L6       0.935600
     16 O6           1.5600    -1.5810     1.2810 o          1 2L6      -0.828300
     17 H12         -4.6200    -0.9340    -0.2860 h1         1 2L6       0.028700
     18 H13         -3.4870    -1.9550    -1.1560 h1         1 2L6       0.028700
     19 H14         -3.5090    -1.7580     1.6320 hc         1 2L6       0.056700
     20 H15         -2.0660    -2.1710     0.7130 hc         1 2L6       0.056700
     21 H16         -2.9010     0.5960     1.6820 hc         1 2L6       0.056200
     22 H17         -1.3160    -0.1590     1.8550 hc         1 2L6       0.056200
     23 H18         -2.5700     2.5810    -0.2940 ha         1 2L6       0.125000
     24 H19         -0.4360     3.6520     0.3170 ha         1 2L6       0.119000
     25 H20          0.7850     1.5750     1.5380 h1         1 2L6       0.064700
     26 H21          1.8810     2.7220    -1.0560 hc         1 2L6       0.032200
     27 H22          2.4110     3.0940     0.5900 hc         1 2L6       0.032200
     28 H23          3.7430     1.1520    -0.7670 hc         1 2L6       0.046200
     29 H24          3.2920     0.8660     0.9080 hc         1 2L6       0.046200
     30 H25          2.0340    -0.2560    -1.5950 h1         1 2L6       0.055700
     31 H2          -2.6390    -0.0470    -1.9710 hn         1 2L6       0.369800
     32 OXT          3.1590    -2.0600    -0.2040 o          1 2L6      -0.828300
@<TRIPOS>BOND
     1     1     2 1   
     2     1     5 1   
     3     1    31 1   
     4     2     3 1   
     5     2    17 1   
     6     2    18 1   
     7     3     4 1   
     8     3    19 1   
     9     3    20 1   
    10     4     5 1   
    11     4    21 1   
    12     4    22 1   
    13     5     6 1   
    14     5     9 1   
    15     6     7 2   
    16     6     8 1   
    17     8    11 1   
    18     8    14 1   
    19     9    10 2   
    20     9    23 1   
    21    10    11 1   
    22    10    24 1   
    23    11    12 1   
    24    11    25 1   
    25    12    13 1   
    26    12    26 1   
    27    12    27 1   
    28    13    14 1   
    29    13    28 1   
    30    13    29 1   
    31    14    15 1   
    32    14    30 1   
    33    15    16 1   
    34    15    32 1   
@<TRIPOS>SUBSTRUCTURE
     1 2L6         1 TEMP              0 ****  ****    0 ROOT
