@<TRIPOS>MOLECULE
2L7
   35    35     1     0     0
SMALL
No Charge or Current Charge


@<TRIPOS>ATOM
      1 N01         -4.6340     1.2180    -1.4380 n8         1 2L7      -0.999200
      2 C02         -5.0470     0.1410    -0.4620 c3         1 2L7       0.017500
      3 C03         -4.2780     0.2750     0.8810 c3         1 2L7      -0.020100
      4 C04         -2.7630     0.1200     0.7500 ca         1 2L7      -0.037300
      5 C05         -2.2010    -1.1350     0.4500 ca         1 2L7      -0.088500
      6 C06         -0.8070    -1.2900     0.3450 ca         1 2L7      -0.139000
      7 C07          0.0510    -0.1850     0.5430 ca         1 2L7      -0.070000
      8 N08          1.4700    -0.2580     0.4560 ns         1 2L7      -0.132000
      9 C09          2.3490    -1.3020     0.1800 c          1 2L7       0.607100
     10 C10          3.8670    -0.9180     0.1890 c3         1 2L7       0.049000
     11 C11          4.4830    -1.1840    -1.2070 c3         1 2L7      -0.082100
     12 Br1          4.1870     1.0280     0.6060 br         1 2L7      -0.278000
     13 C13          4.6080    -1.7360     1.2770 c3         1 2L7      -0.082100
     14 O14          1.9830    -2.4510    -0.0560 o          1 2L7      -0.571100
     15 C15         -0.5160     1.0670     0.8470 ca         1 2L7      -0.139000
     16 C16         -1.9090     1.2200     0.9520 ca         1 2L7      -0.088500
     17 C17         -6.6010     0.0160    -0.1830 c          1 2L7       0.691000
     18 O18         -7.1400    -1.0650    -0.3770 o          1 2L7      -0.731500
     19 O19         -7.2230     1.0300     0.1100 o          1 2L7      -0.731500
     20 H1          -5.1200     1.0660    -2.3300 hn         1 2L7       0.383000
     21 H2          -5.0210     2.1120    -1.1130 hn         1 2L7       0.383000
     22 H4          -4.7450    -0.8170    -0.9090 h1         1 2L7       0.043700
     23 H5          -4.5290     1.2360     1.3450 hc         1 2L7       0.050700
     24 H6          -4.6510    -0.4920     1.5710 hc         1 2L7       0.050700
     25 H7          -2.8480    -1.9970     0.2980 ha         1 2L7       0.118000
     26 H8          -0.4200    -2.2760     0.1110 ha         1 2L7       0.109000
     27 H9           1.9300     0.6270     0.6290 hn         1 2L7       0.148000
     28 H10          3.9720    -0.5900    -1.9750 hc         1 2L7       0.051867
     29 H11          5.5470    -0.9170    -1.2220 hc         1 2L7       0.051867
     30 H12          4.3960    -2.2430    -1.4810 hc         1 2L7       0.051867
     31 H13          4.5240    -2.8130     1.0850 hc         1 2L7       0.051867
     32 H14          5.6730    -1.4770     1.3020 hc         1 2L7       0.051867
     33 H15          4.1850    -1.5320     2.2680 hc         1 2L7       0.051867
     34 H16          0.1270     1.9310     1.0050 ha         1 2L7       0.109000
     35 H17         -2.3250     2.1970     1.1880 ha         1 2L7       0.118000
@<TRIPOS>BOND
     1     1     2 1   
     2     1    20 1   
     3     1    21 1   
     4     2     3 1   
     5     2    17 1   
     6     2    22 1   
     7     3     4 1   
     8     3    23 1   
     9     3    24 1   
    10     4     5 ar  
    11     4    16 ar  
    12     5     6 ar  
    13     5    25 1   
    14     6     7 ar  
    15     6    26 1   
    16     7     8 1   
    17     7    15 ar  
    18     8     9 1   
    19     8    27 1   
    20     9    10 1   
    21     9    14 2   
    22    10    11 1   
    23    10    12 1   
    24    10    13 1   
    25    11    28 1   
    26    11    29 1   
    27    11    30 1   
    28    13    31 1   
    29    13    32 1   
    30    13    33 1   
    31    15    16 ar  
    32    15    34 1   
    33    16    35 1   
    34    17    18 1   
    35    17    19 1   
@<TRIPOS>SUBSTRUCTURE
     1 2L7         1 TEMP              0 ****  ****    0 ROOT
