@<TRIPOS>MOLECULE
2L7
   35    35     1     0     0
SMALL
abcg2


@<TRIPOS>ATOM
      1 N01         -4.4660     1.6100    -0.9100 n8         1 2L7      -0.999200
      2 C02         -4.9090     0.3020    -0.4640 c3         1 2L7       0.017500
      3 C03         -4.2310    -0.0530     0.8700 c3         1 2L7      -0.020100
      4 C04         -2.7370    -0.1280     0.7700 ca         1 2L7      -0.037300
      5 C05         -2.1110    -1.3030     0.3640 ca         1 2L7      -0.088500
      6 C06         -0.7320    -1.4030     0.2490 ca         1 2L7      -0.139000
      7 C07          0.0650    -0.2980     0.5420 ca         1 2L7      -0.070000
      8 N08          1.4700    -0.3210     0.5010 ns         1 2L7      -0.132000
      9 C09          2.2540    -1.0590    -0.3160 c          1 2L7       0.607100
     10 C10          3.7670    -0.8500    -0.1380 c3         1 2L7       0.049000
     11 C11          4.5570    -1.7790    -1.0370 c3         1 2L7      -0.082100
     12 BR1          4.1400     1.0240    -0.7260 br         1 2L7      -0.278000
     13 C13          4.2020    -0.9960     1.3120 c3         1 2L7      -0.082100
     14 O14          1.8300    -1.8670    -1.1180 o          1 2L7      -0.571100
     15 C15         -0.5480     0.8860     0.9500 ca         1 2L7      -0.139000
     16 C16         -1.9260     0.9650     1.0600 ca         1 2L7      -0.088500
     17 C17         -6.4400     0.1400    -0.2860 c          1 2L7       0.691000
     18 O18         -6.8680    -1.0330    -0.2600 o          1 2L7      -0.731500
     19 O19         -7.1120     1.1810    -0.1510 o          1 2L7      -0.731500
     20 H1          -4.7950     1.7590    -1.8560 hn         1 2L7       0.383000
     21 H2          -4.9550     2.3070    -0.3590 hn         1 2L7       0.383000
     22 H4          -4.5770    -0.4360    -1.2040 h1         1 2L7       0.043700
     23 H5          -4.5160     0.6940     1.6190 hc         1 2L7       0.050700
     24 H6          -4.6240    -1.0120     1.2130 hc         1 2L7       0.050700
     25 H7          -2.7140    -2.1760     0.1420 ha         1 2L7       0.118000
     26 H8          -0.2960    -2.3440    -0.0470 ha         1 2L7       0.109000
     27 H9           1.9160     0.3950     1.0540 hn         1 2L7       0.148000
     28 H10          4.3030    -1.6680    -2.0880 hc         1 2L7       0.051867
     29 H11          5.6240    -1.5990    -0.9160 hc         1 2L7       0.051867
     30 H12          4.3610    -2.8120    -0.7470 hc         1 2L7       0.051867
     31 H13          3.9600    -2.0070     1.6490 hc         1 2L7       0.051867
     32 H14          5.2790    -0.8650     1.4030 hc         1 2L7       0.051867
     33 H15          3.7200    -0.2950     1.9910 hc         1 2L7       0.051867
     34 H16          0.0600     1.7520     1.1840 ha         1 2L7       0.109000
     35 H17         -2.3750     1.8950     1.3850 ha         1 2L7       0.118000
@<TRIPOS>BOND
     1     1     2 1   
     2     1    20 1   
     3     1    21 1   
     4     2     3 1   
     5     2    17 1   
     6     2    22 1   
     7     3     4 1   
     8     3    23 1   
     9     3    24 1   
    10     4     5 ar  
    11     4    16 ar  
    12     5     6 ar  
    13     5    25 1   
    14     6     7 ar  
    15     6    26 1   
    16     7     8 1   
    17     7    15 ar  
    18     8     9 1   
    19     8    27 1   
    20     9    10 1   
    21     9    14 2   
    22    10    11 1   
    23    10    12 1   
    24    10    13 1   
    25    11    28 1   
    26    11    29 1   
    27    11    30 1   
    28    13    31 1   
    29    13    32 1   
    30    13    33 1   
    31    15    16 ar  
    32    15    34 1   
    33    16    35 1   
    34    17    18 1   
    35    17    19 1   
@<TRIPOS>SUBSTRUCTURE
     1 2L7         1 TEMP              0 ****  ****    0 ROOT
