@<TRIPOS>MOLECULE
2L9
   30    32     1     0     0
SMALL
bcc


@<TRIPOS>ATOM
      1 N2           2.8690     0.9540    -0.8990 n7         1 2L9      -0.806200
      2 C22          3.8330     0.8340     0.2030 c5         1 2L9       0.157800
      3 C23          3.4310    -0.4310     0.9580 c5         1 2L9      -0.091400
      4 C8           1.9120    -0.4350     0.8050 c5         1 2L9      -0.055500
      5 C21          1.7670     0.0410    -0.6510 c5         1 2L9       0.081500
      6 C25          0.4060     0.6740    -0.8260 c          1 2L9       0.714500
      7 O7           0.2590     1.8830    -0.9590 o          1 2L9      -0.652500
      8 C7           1.2420    -1.7360     1.0990 c2         1 2L9      -0.138200
      9 C6           0.2040    -2.2450     0.4430 c2         1 2L9      -0.167200
     10 C5          -0.5390    -1.6370    -0.7220 c5         1 2L9       0.200100
     11 C4          -1.9950    -2.0100    -0.6950 c2         1 2L9      -0.264200
     12 C3          -2.7760    -0.9410    -0.6560 c2         1 2L9      -0.097200
     13 C2          -1.9800     0.3250    -0.6290 c5         1 2L9      -0.022100
     14 N1          -0.6250    -0.1770    -0.7670 n          1 2L9      -0.438800
     15 C1          -2.2380     1.0890     0.6990 c          1 2L9       0.943600
     16 O2          -1.3930     0.9820     1.5990 o          1 2L9      -0.817800
     17 OXT         -3.3200     1.7070     0.7260 o          1 2L9      -0.817800
     18 H26          4.8590     0.7740    -0.1690 h1         1 2L9       0.029200
     19 H27          3.7840     1.6990     0.8720 h1         1 2L9       0.029200
     20 H28          3.8550    -1.3190     0.4820 hc         1 2L9       0.038700
     21 H29          3.7570    -0.4210     1.9980 hc         1 2L9       0.038700
     22 H30          1.4950     0.3350     1.4680 hc         1 2L9       0.104700
     23 H31          1.8430    -0.8350    -1.3110 h1         1 2L9       0.064700
     24 H32          1.6470    -2.3090     1.9290 ha         1 2L9       0.106000
     25 H33         -0.1570    -3.2250     0.7370 ha         1 2L9       0.110000
     26 H34         -0.0820    -2.0120    -1.6490 h1         1 2L9       0.036700
     27 H35         -2.3150    -3.0420    -0.7010 ha         1 2L9       0.118000
     28 H36         -3.8560    -0.9420    -0.6290 ha         1 2L9       0.139000
     29 H37         -2.2440     0.9790    -1.4670 h1         1 2L9       0.074700
     30 H2           2.5130     1.8980    -0.9610 hn         1 2L9       0.381800
@<TRIPOS>BOND
     1     1     2 1   
     2     1     5 1   
     3     1    30 1   
     4     2     3 1   
     5     2    18 1   
     6     2    19 1   
     7     3     4 1   
     8     3    20 1   
     9     3    21 1   
    10     4     5 1   
    11     4     8 1   
    12     4    22 1   
    13     5     6 1   
    14     5    23 1   
    15     6     7 2   
    16     6    14 1   
    17     8     9 2   
    18     8    24 1   
    19     9    10 1   
    20     9    25 1   
    21    10    11 1   
    22    10    14 1   
    23    10    26 1   
    24    11    12 2   
    25    11    27 1   
    26    12    13 1   
    27    12    28 1   
    28    13    14 1   
    29    13    15 1   
    30    13    29 1   
    31    15    16 1   
    32    15    17 1   
@<TRIPOS>SUBSTRUCTURE
     1 2L9         1 TEMP              0 ****  ****    0 ROOT
