@<TRIPOS>MOLECULE
2L9
   30    32     1     0     0
SMALL
No Charge or Current Charge


@<TRIPOS>ATOM
      1 N2           3.0120     0.9410    -0.9500 n7         1 2L9      -0.861400
      2 C22          3.9110     0.8080     0.2250 c5         1 2L9       0.157800
      3 C23          3.4980    -0.5280     0.8830 c5         1 2L9      -0.091400
      4 C8           1.9600    -0.3950     0.7940 c5         1 2L9      -0.055500
      5 C21          1.8200     0.0470    -0.6910 c5         1 2L9       0.081500
      6 C25          0.4100     0.7300    -0.8710 c          1 2L9       0.572000
      7 O7           0.2140     1.8990    -1.1930 o          1 2L9      -0.577000
      8 C7           1.3080    -1.7460     1.1160 c2         1 2L9      -0.188200
      9 C6           0.2200    -2.2520     0.4920 c2         1 2L9      -0.217200
     10 C5          -0.5180    -1.6080    -0.6840 c5         1 2L9       0.200100
     11 C4          -1.9660    -2.0340    -0.7150 c2         1 2L9      -0.314200
     12 C3          -2.8050    -1.0030    -0.6240 c2         1 2L9      -0.147200
     13 C2          -2.0660     0.3140    -0.5210 c5         1 2L9      -0.022100
     14 N1          -0.6360    -0.1400    -0.5030 n          1 2L9      -0.371800
     15 C1          -2.5200     1.1650     0.7170 c          1 2L9       0.733000
     16 O2          -2.0070     0.9770     1.8130 o          1 2L9      -0.712500
     17 OXT         -3.4080     1.9920     0.5590 o          1 2L9      -0.712500
     18 H26          4.9690     0.8240    -0.0680 h1         1 2L9       0.029200
     19 H27          3.7430     1.6430     0.9210 h1         1 2L9       0.029200
     20 H28          3.8740    -1.3900     0.3190 hc         1 2L9       0.038700
     21 H29          3.8600    -0.6170     1.9140 hc         1 2L9       0.038700
     22 H30          1.5960     0.3800     1.4830 hc         1 2L9       0.104700
     23 H31          1.8820    -0.8220    -1.3610 h1         1 2L9       0.064700
     24 H32          1.7330    -2.3310     1.9340 ha         1 2L9       0.156000
     25 H33         -0.1500    -3.2170     0.8400 ha         1 2L9       0.160000
     26 H34         -0.0320    -1.8500    -1.6390 h1         1 2L9       0.036700
     27 H35         -2.2940    -3.0710    -0.8010 ha         1 2L9       0.168000
     28 H36         -3.8930    -1.1000    -0.6250 ha         1 2L9       0.189000
     29 H37         -2.2570     0.9240    -1.4130 h1         1 2L9       0.074700
     30 H2           2.6960     1.9200    -1.0210 hn         1 2L9       0.437000
@<TRIPOS>BOND
     1     1     2 1   
     2     1     5 1   
     3     1    30 1   
     4     2     3 1   
     5     2    18 1   
     6     2    19 1   
     7     3     4 1   
     8     3    20 1   
     9     3    21 1   
    10     4     5 1   
    11     4     8 1   
    12     4    22 1   
    13     5     6 1   
    14     5    23 1   
    15     6     7 2   
    16     6    14 1   
    17     8     9 2   
    18     8    24 1   
    19     9    10 1   
    20     9    25 1   
    21    10    11 1   
    22    10    14 1   
    23    10    26 1   
    24    11    12 2   
    25    11    27 1   
    26    12    13 1   
    27    12    28 1   
    28    13    14 1   
    29    13    15 1   
    30    13    29 1   
    31    15    16 1   
    32    15    17 1   
@<TRIPOS>SUBSTRUCTURE
     1 2L9         1 TEMP              0 ****  ****    0 ROOT
