@<TRIPOS>MOLECULE
2LB
   26    27     1     0     0
SMALL
abcg2


@<TRIPOS>ATOM
      1 OAF          0.8100    -0.9270     1.4320 o          1 2LB      -0.672200
      2 SAQ          1.8600    -0.1120     0.7920 s6         1 2LB       1.309600
      3 OAD          2.1020     1.1730     1.4660 o          1 2LB      -0.672200
      4 OAE          3.0860    -0.8730     0.5000 o          1 2LB      -0.672200
      5 CAP          1.1620     0.3270    -0.8650 c6         1 2LB      -0.383000
      6 CAA          2.2580     0.9600    -1.7090 c3         1 2LB      -0.040100
      7 CAK          0.6500    -0.9630    -1.5000 c6         1 2LB      -0.134400
      8 CAL         -0.5360    -1.5810    -0.8140 c          1 2LB       0.618700
      9 OAB         -0.7120    -2.7790    -0.7950 o          1 2LB      -0.540100
     10 CAN         -1.5530    -0.6390    -0.2780 ca         1 2LB      -0.090600
     11 CAI         -2.7880    -1.1270     0.1330 ca         1 2LB      -0.077000
     12 CAG         -3.7580    -0.2610     0.6100 ca         1 2LB      -0.116000
     13 CAH         -3.5000     1.1040     0.6760 ca         1 2LB      -0.120000
     14 CAJ         -2.2740     1.5980     0.2660 ca         1 2LB      -0.074000
     15 CAO         -1.2890     0.7330    -0.2060 ca         1 2LB      -0.113600
     16 CAM          0.0250     1.2960    -0.6130 c          1 2LB       0.615700
     17 OAC          0.1770     2.4910    -0.7290 o          1 2LB      -0.530100
     18 H1           3.0580     0.2430    -1.8830 hc         1 2LB       0.037367
     19 H2           1.8610     1.2610    -2.6790 hc         1 2LB       0.037367
     20 H3           2.6840     1.8390    -1.2300 hc         1 2LB       0.037367
     21 H4           0.3260    -0.7370    -2.5240 hc         1 2LB       0.064700
     22 H5           1.4520    -1.6970    -1.5860 hc         1 2LB       0.064700
     23 H8          -2.9920    -2.1880     0.0740 ha         1 2LB       0.125000
     24 H9          -4.7160    -0.6470     0.9310 ha         1 2LB       0.099000
     25 H10         -4.2570     1.7820     1.0490 ha         1 2LB       0.100000
     26 H11         -2.0730     2.6590     0.3250 ha         1 2LB       0.128000
@<TRIPOS>BOND
     1     1     2 1   
     2     2     3 1   
     3     2     4 1   
     4     2     5 1   
     5     5     6 1   
     6     5     7 1   
     7     5    16 1   
     8     6    18 1   
     9     6    19 1   
    10     6    20 1   
    11     7     8 1   
    12     7    21 1   
    13     7    22 1   
    14     8     9 2   
    15     8    10 1   
    16    10    11 ar  
    17    10    15 ar  
    18    11    12 ar  
    19    11    23 1   
    20    12    13 ar  
    21    12    24 1   
    22    13    14 ar  
    23    13    25 1   
    24    14    15 ar  
    25    14    26 1   
    26    15    16 1   
    27    16    17 2   
@<TRIPOS>SUBSTRUCTURE
     1 2LB         1 TEMP              0 ****  ****    0 ROOT
