@<TRIPOS>MOLECULE
2LB
   26    27     1     0     0
SMALL
No Charge or Current Charge


@<TRIPOS>ATOM
      1 OAF          0.9550    -0.5830     1.6380 o          1 2LB      -0.672200
      2 SAQ          2.0360    -0.0700     0.7890 s6         1 2LB       1.309600
      3 OAD          2.5960     1.2120     1.2370 o          1 2LB      -0.672200
      4 OAE          3.0470    -1.0750     0.4340 o          1 2LB      -0.672200
      5 CAP          1.2150     0.2990    -0.8040 c6         1 2LB      -0.383000
      6 CAA          2.2370     0.9950    -1.7710 c3         1 2LB      -0.040100
      7 CAK          0.6490    -1.0030    -1.4820 c6         1 2LB      -0.134400
      8 CAL         -0.5300    -1.6410    -0.7350 c          1 2LB       0.618700
      9 OAB         -0.5960    -2.8530    -0.5500 o          1 2LB      -0.540100
     10 CAN         -1.5870    -0.6780    -0.2620 ca         1 2LB      -0.090600
     11 CAI         -2.8780    -1.1580     0.0490 ca         1 2LB      -0.077000
     12 CAG         -3.8840    -0.2760     0.4730 ca         1 2LB      -0.116000
     13 CAH         -3.6080     1.0920     0.5930 ca         1 2LB      -0.120000
     14 CAJ         -2.3260     1.5810     0.2970 ca         1 2LB      -0.074000
     15 CAO         -1.2970     0.7090    -0.1310 ca         1 2LB      -0.113600
     16 CAM          0.0940     1.2730    -0.4010 c          1 2LB       0.615700
     17 OAC          0.3050     2.4780    -0.3080 o          1 2LB      -0.530100
     18 H1           3.0570     0.3170    -2.0420 hc         1 2LB       0.037367
     19 H2           1.7510     1.3030    -2.7050 hc         1 2LB       0.037367
     20 H3           2.6910     1.8930    -1.3330 hc         1 2LB       0.037367
     21 H4           0.2240    -0.6740    -2.4410 hc         1 2LB       0.064700
     22 H5           1.4200    -1.7570    -1.6930 hc         1 2LB       0.064700
     23 H8          -3.1070    -2.2170    -0.0460 ha         1 2LB       0.125000
     24 H9          -4.8770    -0.6540     0.7060 ha         1 2LB       0.099000
     25 H10         -4.3870     1.7770     0.9220 ha         1 2LB       0.100000
     26 H11         -2.1330     2.6460     0.4100 ha         1 2LB       0.128000
@<TRIPOS>BOND
     1     1     2 1   
     2     2     3 1   
     3     2     4 1   
     4     2     5 1   
     5     5     6 1   
     6     5     7 1   
     7     5    16 1   
     8     6    18 1   
     9     6    19 1   
    10     6    20 1   
    11     7     8 1   
    12     7    21 1   
    13     7    22 1   
    14     8     9 2   
    15     8    10 1   
    16    10    11 ar  
    17    10    15 ar  
    18    11    12 ar  
    19    11    23 1   
    20    12    13 ar  
    21    12    24 1   
    22    13    14 ar  
    23    13    25 1   
    24    14    15 ar  
    25    14    26 1   
    26    15    16 1   
    27    16    17 2   
@<TRIPOS>SUBSTRUCTURE
     1 2LB         1 TEMP              0 ****  ****    0 ROOT
