@<TRIPOS>MOLECULE
2LC
   55    58     1     0     0
SMALL
bcc


@<TRIPOS>ATOM
      1 C1           4.4390     1.2880    -3.4130 c3         1 2LC      -0.018800
      2 C2           3.3580     0.9060    -2.4590 cc         1 2LC      -0.069300
      3 C3           2.1190     0.4500    -2.7870 cd         1 2LC      -0.166300
      4 N4           1.3960     0.2230    -1.6250 na         1 2LC       0.015800
      5 C5           2.1700     0.5220    -0.5520 cd         1 2LC      -0.043600
      6 C6           3.3940     0.9500    -1.0270 cc         1 2LC      -0.250600
      7 C7           4.4670     1.3000    -0.1220 c          1 2LC       0.615700
      8 O8           5.5760     1.6450    -0.4990 o          1 2LC      -0.539100
      9 C9           4.1090     1.2470     1.3500 c6         1 2LC      -0.174400
     10 C10          3.0780     0.1730     1.7300 c6         1 2LC      -0.033000
     11 C11          3.6580    -1.2250     1.5080 c3         1 2LC      -0.087600
     12 C12          2.7090     0.3320     3.2030 c3         1 2LC      -0.087600
     13 C13          1.8110     0.3710     0.8810 c6         1 2LC      -0.011100
     14 C14          0.0890    -0.3020    -1.5920 ca         1 2LC       0.094800
     15 C15         -0.8510     0.2730    -0.7560 ca         1 2LC      -0.265000
     16 C16         -2.1480    -0.2560    -0.6620 ca         1 2LC       0.279600
     17 N17         -3.0610     0.3010     0.1720 nu         1 2LC      -0.781600
     18 C18         -2.7850     1.3970     1.0720 c5         1 2LC       0.205500
     19 C20         -4.0690     1.8080     1.7840 c5         1 2LC      -0.131400
     20 C21         -4.1610     0.7760     2.9030 c5         1 2LC       0.128400
     21 O22         -2.8220     0.4200     3.2190 os         1 2LC      -0.409600
     22 C23         -1.9310     0.9830     2.2730 c5         1 2LC       0.108400
     23 C24         -2.4850    -1.3560    -1.4860 ca         1 2LC      -0.302600
     24 C25         -3.8640    -1.9420    -1.5360 c          1 2LC       0.690700
     25 N26         -4.3370    -2.3710    -0.3530 nt         1 2LC      -0.679000
     26 O27         -4.5020    -1.9930    -2.5740 o          1 2LC      -0.573100
     27 C28         -1.5130    -1.8620    -2.3300 ca         1 2LC       0.244900
     28 F29         -1.8290    -2.9200    -3.0870 f          1 2LC      -0.122900
     29 C30         -0.2210    -1.3880    -2.4000 ca         1 2LC      -0.251000
     30 H1           5.3250     0.6660    -3.2840 hc         1 2LC       0.046033
     31 H2           4.1000     1.1800    -4.4430 hc         1 2LC       0.046033
     32 H3           4.7540     2.3220    -3.2700 hc         1 2LC       0.046033
     33 H4           1.6670     0.2930    -3.7540 h4         1 2LC       0.174000
     34 H5           5.0240     1.1240     1.9350 hc         1 2LC       0.066700
     35 H6           3.7070     2.2360     1.6110 hc         1 2LC       0.066700
     36 H7           4.5460    -1.3750     2.1240 hc         1 2LC       0.038867
     37 H8           2.9310    -1.9910     1.7860 hc         1 2LC       0.038867
     38 H9           3.9410    -1.4030     0.4690 hc         1 2LC       0.038867
     39 H10          2.3000     1.3240     3.4040 hc         1 2LC       0.038867
     40 H11          1.9600    -0.4050     3.5010 hc         1 2LC       0.038867
     41 H12          3.5820     0.1950     3.8420 hc         1 2LC       0.038867
     42 H13          1.2930     1.2730     1.2300 hc         1 2LC       0.054700
     43 H14          1.1200    -0.4630     1.0320 hc         1 2LC       0.054700
     44 H15         -0.5820     1.1590    -0.1990 ha         1 2LC       0.149000
     45 H16         -4.0000    -0.0600     0.1620 hn         1 2LC       0.452800
     46 H17         -2.3360     2.2360     0.5330 h1         1 2LC       0.075700
     47 H18         -3.9480     2.8130     2.1890 hc         1 2LC       0.070200
     48 H19         -4.9420     1.8140     1.1320 hc         1 2LC       0.070200
     49 H20         -4.6600     1.1730     3.7900 h1         1 2LC       0.048200
     50 H21         -4.7150    -0.1130     2.5810 h1         1 2LC       0.048200
     51 H22         -1.1640     0.2460     2.0200 h1         1 2LC       0.055700
     52 H23         -1.4270     1.8650     2.6850 h1         1 2LC       0.055700
     53 H24         -3.7280    -2.4980     0.4390 hn         1 2LC       0.315000
     54 H25         -5.2400    -2.8180    -0.3070 hn         1 2LC       0.315000
     55 H26          0.5130    -1.8680    -3.0320 ha         1 2LC       0.170000
@<TRIPOS>BOND
     1     1     2 1   
     2     1    30 1   
     3     1    31 1   
     4     1    32 1   
     5     2     3 2   
     6     2     6 1   
     7     3     4 1   
     8     3    33 1   
     9     4     5 1   
    10     4    14 1   
    11     5     6 2   
    12     5    13 1   
    13     6     7 1   
    14     7     8 2   
    15     7     9 1   
    16     9    10 1   
    17     9    34 1   
    18     9    35 1   
    19    10    11 1   
    20    10    12 1   
    21    10    13 1   
    22    11    36 1   
    23    11    37 1   
    24    11    38 1   
    25    12    39 1   
    26    12    40 1   
    27    12    41 1   
    28    13    42 1   
    29    13    43 1   
    30    14    15 ar  
    31    14    29 ar  
    32    15    16 ar  
    33    15    44 1   
    34    16    17 1   
    35    16    23 ar  
    36    17    18 1   
    37    17    45 1   
    38    18    19 1   
    39    18    22 1   
    40    18    46 1   
    41    19    20 1   
    42    19    47 1   
    43    19    48 1   
    44    20    21 1   
    45    20    49 1   
    46    20    50 1   
    47    21    22 1   
    48    22    51 1   
    49    22    52 1   
    50    23    24 1   
    51    23    27 ar  
    52    24    25 1   
    53    24    26 2   
    54    25    53 1   
    55    25    54 1   
    56    27    28 1   
    57    27    29 ar  
    58    29    55 1   
@<TRIPOS>SUBSTRUCTURE
     1 2LC         1 TEMP              0 ****  ****    0 ROOT
