@<TRIPOS>MOLECULE
2LC
   55    58     1     0     0
SMALL
No Charge or Current Charge


@<TRIPOS>ATOM
      1 C1           4.2810     1.3840    -3.5700 c3         1 2LC      -0.018800
      2 C2           3.2230     1.2450    -2.5080 cc         1 2LC      -0.069300
      3 C3           1.8650     1.1580    -2.6960 cd         1 2LC      -0.199000
      4 N4           1.3150     1.0830    -1.4170 na         1 2LC       0.117200
      5 C5           2.2980     0.9280    -0.4450 cd         1 2LC      -0.094300
      6 C6           3.4810     1.0990    -1.1130 cc         1 2LC      -0.250600
      7 C7           4.7940     1.0350    -0.4190 c          1 2LC       0.615700
      8 O8           5.8780     1.0800    -0.9870 o          1 2LC      -0.539100
      9 C9           4.7040     0.8690     1.1120 c6         1 2LC      -0.174400
     10 C10          3.4910     0.0090     1.5920 c6         1 2LC      -0.033000
     11 C11          3.6560    -1.4680     1.1150 c3         1 2LC      -0.087600
     12 C12          3.4440    -0.0140     3.1480 c3         1 2LC      -0.087600
     13 C13          2.1660     0.6160     1.0310 c6         1 2LC      -0.011100
     14 C14          0.1920     0.2650    -1.2860 ca         1 2LC       0.094800
     15 C15         -1.0210     0.8080    -0.8470 ca         1 2LC      -0.247000
     16 C16         -2.1570     0.0010    -0.6710 ca         1 2LC       0.418000
     17 N17         -3.3460     0.6100    -0.2620 nu         1 2LC      -0.975200
     18 C18         -3.2120     1.4070     1.0050 c5         1 2LC       0.205500
     19 C20         -4.6830     1.8360     1.3090 c5         1 2LC      -0.131400
     20 C21         -5.1850     0.7870     2.3520 c5         1 2LC       0.151600
     21 O22         -4.1840    -0.2500     2.3680 os         1 2LC      -0.456000
     22 C23         -2.9200     0.4100     2.1730 c5         1 2LC       0.131600
     23 C24         -2.0980    -1.3750    -0.9740 ca         1 2LC      -0.302600
     24 C25         -3.2790    -2.2890    -0.8720 c          1 2LC       0.623700
     25 N26         -4.1320    -2.1380     0.1610 nt         1 2LC      -0.612000
     26 O27         -3.5260    -3.1360    -1.7120 o          1 2LC      -0.573100
     27 C28         -0.8740    -1.9100    -1.4250 ca         1 2LC       0.280000
     28 F29         -0.7490    -3.2300    -1.6910 f          1 2LC      -0.158000
     29 C30          0.2600    -1.1060    -1.5660 ca         1 2LC      -0.233000
     30 H1           4.9230     0.4970    -3.6020 hc         1 2LC       0.046033
     31 H2           3.8280     1.5060    -4.5610 hc         1 2LC       0.046033
     32 H3           4.9130     2.2600    -3.3820 hc         1 2LC       0.046033
     33 H4           1.2690     1.1440    -3.6010 h4         1 2LC       0.156000
     34 H5           5.6670     0.5200     1.5060 hc         1 2LC       0.066700
     35 H6           4.5400     1.8830     1.5010 hc         1 2LC       0.066700
     36 H7           4.5880    -1.9080     1.4910 hc         1 2LC       0.038867
     37 H8           2.8300    -2.0970     1.4680 hc         1 2LC       0.038867
     38 H9           3.6760    -1.5470     0.0220 hc         1 2LC       0.038867
     39 H10          3.3390     0.9970     3.5610 hc         1 2LC       0.038867
     40 H11          2.5970    -0.6080     3.5150 hc         1 2LC       0.038867
     41 H12          4.3590    -0.4470     3.5710 hc         1 2LC       0.038867
     42 H13          1.9240     1.5420     1.5700 hc         1 2LC       0.054700
     43 H14          1.3280    -0.0700     1.2180 hc         1 2LC       0.054700
     44 H15         -1.0770     1.8750    -0.6580 ha         1 2LC       0.131000
     45 H16         -4.1740     0.0270    -0.3790 hn         1 2LC       0.508000
     46 H17         -2.5130     2.2540     0.9540 h1         1 2LC       0.075700
     47 H18         -4.7080     2.8380     1.7500 hc         1 2LC       0.070200
     48 H19         -5.3240     1.8810     0.4210 hc         1 2LC       0.070200
     49 H20         -5.2530     1.2260     3.3570 h1         1 2LC       0.048200
     50 H21         -6.1610     0.3580     2.0910 h1         1 2LC       0.048200
     51 H22         -2.1320    -0.3230     1.9530 h1         1 2LC       0.055700
     52 H23         -2.6500     0.9450     3.0940 h1         1 2LC       0.055700
     53 H24         -3.9260    -1.4790     0.9030 hn         1 2LC       0.315000
     54 H25         -4.9240    -2.7580     0.2360 hn         1 2LC       0.315000
     55 H26          1.1950    -1.5510    -1.8960 ha         1 2LC       0.152000
@<TRIPOS>BOND
     1     1     2 1   
     2     1    30 1   
     3     1    31 1   
     4     1    32 1   
     5     2     3 2   
     6     2     6 1   
     7     3     4 1   
     8     3    33 1   
     9     4     5 1   
    10     4    14 1   
    11     5     6 2   
    12     5    13 1   
    13     6     7 1   
    14     7     8 2   
    15     7     9 1   
    16     9    10 1   
    17     9    34 1   
    18     9    35 1   
    19    10    11 1   
    20    10    12 1   
    21    10    13 1   
    22    11    36 1   
    23    11    37 1   
    24    11    38 1   
    25    12    39 1   
    26    12    40 1   
    27    12    41 1   
    28    13    42 1   
    29    13    43 1   
    30    14    15 ar  
    31    14    29 ar  
    32    15    16 ar  
    33    15    44 1   
    34    16    17 1   
    35    16    23 ar  
    36    17    18 1   
    37    17    45 1   
    38    18    19 1   
    39    18    22 1   
    40    18    46 1   
    41    19    20 1   
    42    19    47 1   
    43    19    48 1   
    44    20    21 1   
    45    20    49 1   
    46    20    50 1   
    47    21    22 1   
    48    22    51 1   
    49    22    52 1   
    50    23    24 1   
    51    23    27 ar  
    52    24    25 1   
    53    24    26 2   
    54    25    53 1   
    55    25    54 1   
    56    27    28 1   
    57    27    29 ar  
    58    29    55 1   
@<TRIPOS>SUBSTRUCTURE
     1 2LC         1 TEMP              0 ****  ****    0 ROOT
