@<TRIPOS>MOLECULE
2LD
   29    30     1     0     0
SMALL
No Charge or Current Charge


@<TRIPOS>ATOM
      1 C4          -3.3270     1.2810     0.0520 ca         1 2LD      -0.107000
      2 C5          -3.4900    -1.1240     0.3800 ca         1 2LD      -0.107000
      3 C6          -2.7100     0.0490     0.3450 ca         1 2LD      -0.082300
      4 C7           1.8170     0.9280    -0.2310 cc         1 2LD      -0.172000
      5 C8           1.7860    -1.4960    -0.3820 cd         1 2LD      -0.083400
      6 C10          3.1750     0.9000    -0.0000 cd         1 2LD       0.012900
      7 C13         -0.3980    -0.2270    -0.6790 c3         1 2LD      -0.016200
      8 C1          -5.4820     0.1670    -0.1630 ca         1 2LD      -0.110000
      9 C2          -4.7090     1.3400    -0.2010 ca         1 2LD      -0.108500
     10 C3          -4.8710    -1.0650     0.1280 ca         1 2LD      -0.108500
     11 C9           1.0880    -0.3010    -0.4290 cc         1 2LD      -0.133200
     12 C11          3.9380    -0.3890     0.0540 c          1 2LD       0.507200
     13 C12         -1.2120    -0.0150     0.6140 c3         1 2LD      -0.030100
     14 N14          3.1550    -1.5010    -0.1480 ns         1 2LD      -0.344100
     15 O15          5.1430    -0.4650     0.2560 o          1 2LD      -0.585000
     16 H1          -2.7350     2.1930     0.0180 ha         1 2LD       0.110000
     17 H2          -3.0250    -2.0820     0.6020 ha         1 2LD       0.110000
     18 H3           1.2870     1.8760    -0.2650 ha         1 2LD       0.202000
     19 H4           1.3380    -2.4780    -0.5170 h4         1 2LD       0.204000
     20 H5          -0.6170     0.5900    -1.3790 hc         1 2LD       0.051200
     21 H6          -0.7400    -1.1470    -1.1690 hc         1 2LD       0.051200
     22 H7          -6.5510     0.2130    -0.3580 ha         1 2LD       0.113000
     23 H8          -5.1800     2.2940    -0.4270 ha         1 2LD       0.112500
     24 H9          -5.4690    -1.9740     0.1560 ha         1 2LD       0.112500
     25 H11         -0.8780     0.9080     1.1030 hc         1 2LD       0.051200
     26 H12         -0.9880    -0.8300     1.3140 hc         1 2LD       0.051200
     27 H13          4.8440     1.7270     0.3360 ho         1 2LD       0.491000
     28 H10          3.6610    -2.3790    -0.1140 hn         1 2LD       0.330500
     29 O16          3.9140     2.0250     0.1940 oh         1 2LD      -0.522100
@<TRIPOS>BOND
     1     1     3 ar  
     2     1     9 ar  
     3     1    16 1   
     4     2     3 ar  
     5     2    10 ar  
     6     2    17 1   
     7     3    13 1   
     8     4     6 2   
     9     4    11 1   
    10     4    18 1   
    11     5    11 2   
    12     5    14 1   
    13     5    19 1   
    14     6    12 1   
    15     6    29 1   
    16     7    11 1   
    17     7    13 1   
    18     7    20 1   
    19     7    21 1   
    20     8     9 ar  
    21     8    10 ar  
    22     8    22 1   
    23     9    23 1   
    24    10    24 1   
    25    12    14 1   
    26    12    15 2   
    27    13    25 1   
    28    13    26 1   
    29    14    28 1   
    30    27    29 1   
@<TRIPOS>SUBSTRUCTURE
     1 2LD         1 TEMP              0 ****  ****    0 ROOT
