@<TRIPOS>MOLECULE
2LD
   29    30     1     0     0
SMALL
abcg2


@<TRIPOS>ATOM
      1 C4          -3.2630     1.2630     0.0560 ca         1 2LD      -0.107000
      2 C5          -3.4780    -1.0960     0.4060 ca         1 2LD      -0.107000
      3 C6          -2.6730     0.0410     0.3740 ca         1 2LD      -0.082300
      4 C7           1.7730     0.8880    -0.2090 cc         1 2LD      -0.172000
      5 C8           1.7830    -1.4800    -0.4240 cd         1 2LD      -0.083400
      6 C10          3.1110     0.8930     0.0230 cd         1 2LD       0.012900
      7 C13         -0.4120    -0.3150    -0.6680 c3         1 2LD      -0.016200
      8 C1          -5.4130     0.2090    -0.1850 ca         1 2LD      -0.110000
      9 C2          -4.6210     1.3490    -0.2210 ca         1 2LD      -0.108500
     10 C3          -4.8360    -1.0150     0.1290 ca         1 2LD      -0.108500
     11 C9           1.0710    -0.3290    -0.4440 cc         1 2LD      -0.133200
     12 C11          3.8700    -0.3450     0.0440 c          1 2LD       0.507200
     13 C12         -1.1950    -0.0530     0.6270 c3         1 2LD      -0.030100
     14 N14          3.1270    -1.4600    -0.1870 ns         1 2LD      -0.344100
     15 O15          5.0860    -0.3720     0.2510 o          1 2LD      -0.585000
     16 H1          -2.6520     2.1580     0.0310 ha         1 2LD       0.110000
     17 H2          -3.0380    -2.0540     0.6560 ha         1 2LD       0.110000
     18 H3           1.2310     1.8280    -0.2260 ha         1 2LD       0.202000
     19 H4           1.3520    -2.4550    -0.5930 h4         1 2LD       0.204000
     20 H5          -0.6650     0.4540    -1.4030 hc         1 2LD       0.051200
     21 H6          -0.7330    -1.2690    -1.0940 hc         1 2LD       0.051200
     22 H7          -6.4720     0.2740    -0.3970 ha         1 2LD       0.113000
     23 H8          -5.0610     2.3080    -0.4620 ha         1 2LD       0.112500
     24 H9          -5.4470    -1.9090     0.1620 ha         1 2LD       0.112500
     25 H11         -0.8390     0.8740     1.0860 hc         1 2LD       0.051200
     26 H12         -0.9840    -0.8570     1.3360 hc         1 2LD       0.051200
     27 H13          4.7280     1.8060     0.3610 ho         1 2LD       0.491000
     28 H10          3.6230    -2.3420    -0.1810 hn         1 2LD       0.330500
     29 O16          3.7920     2.0240     0.2390 oh         1 2LD      -0.522100
@<TRIPOS>BOND
     1     1     3 ar  
     2     1     9 ar  
     3     1    16 1   
     4     2     3 ar  
     5     2    10 ar  
     6     2    17 1   
     7     3    13 1   
     8     4     6 2   
     9     4    11 1   
    10     4    18 1   
    11     5    11 2   
    12     5    14 1   
    13     5    19 1   
    14     6    12 1   
    15     6    29 1   
    16     7    11 1   
    17     7    13 1   
    18     7    20 1   
    19     7    21 1   
    20     8     9 ar  
    21     8    10 ar  
    22     8    22 1   
    23     9    23 1   
    24    10    24 1   
    25    12    14 1   
    26    12    15 2   
    27    13    25 1   
    28    13    26 1   
    29    14    28 1   
    30    27    29 1   
@<TRIPOS>SUBSTRUCTURE
     1 2LD         1 TEMP              0 ****  ****    0 ROOT
