@<TRIPOS>MOLECULE
2LE
   29    29     1     0     0
SMALL
No Charge or Current Charge


@<TRIPOS>ATOM
      1 C1          -2.9050     0.6040     0.4310 c5         1 2LE       0.381300
      2 O1          -3.1110     1.5110    -0.6320 oh         1 2LE      -0.669000
      3 C2          -3.4120    -0.8300     0.0750 c5         1 2LE      -0.106400
      4 C3          -2.1100    -1.6870     0.0670 c5         1 2LE      -0.110400
      5 C4          -1.0510    -0.6030    -0.2320 c5         1 2LE       0.172300
      6 O4          -1.4930     0.4630     0.6250 os         1 2LE      -0.490000
      7 C5           0.4060    -0.9990     0.0960 c3         1 2LE      -0.070400
      8 C6           1.4470     0.1040    -0.2090 c3         1 2LE      -0.071400
      9 C7           2.8960    -0.3280     0.1040 c3         1 2LE      -0.076400
     10 C8           3.9340     0.7740    -0.2010 c3         1 2LE      -0.075400
     11 C9           5.3810     0.3440     0.1120 c3         1 2LE      -0.088100
     12 H1          -3.3730     0.9830     1.3500 h2         1 2LE       0.046700
     13 H12         -4.1370    -1.1980     0.8090 hc         1 2LE       0.064700
     14 H22         -3.9090    -0.8480    -0.9020 hc         1 2LE       0.064700
     15 H3          -1.9340    -2.1580     1.0410 hc         1 2LE       0.055700
     16 H4          -1.1090    -0.2730    -1.2800 h1         1 2LE       0.045700
     17 H15          0.4820    -1.2770     1.1550 hc         1 2LE       0.044200
     18 H25          0.6690    -1.8960    -0.4780 hc         1 2LE       0.044200
     19 H16          1.3740     0.3820    -1.2680 hc         1 2LE       0.045700
     20 H26          1.2050     1.0000     0.3750 hc         1 2LE       0.045700
     21 H17          2.9680    -0.6070     1.1630 hc         1 2LE       0.035200
     22 H27          3.1400    -1.2240    -0.4800 hc         1 2LE       0.035200
     23 H18          3.8670     1.0540    -1.2590 hc         1 2LE       0.037700
     24 H28          3.6950     1.6710     0.3840 hc         1 2LE       0.037700
     25 H19          6.0800     1.1560    -0.1200 hc         1 2LE       0.031033
     26 H29          5.4890     0.0900     1.1730 hc         1 2LE       0.031033
     27 H39          5.6630    -0.5320    -0.4850 hc         1 2LE       0.031033
     28 HO1         -2.4640     2.2280    -0.4670 ho         1 2LE       0.453000
     29 H3A         -2.1280    -2.4800    -0.6890 hc         1 2LE       0.055700
@<TRIPOS>BOND
     1     1     2 1   
     2     1     3 1   
     3     1     6 1   
     4     1    12 1   
     5     2    28 1   
     6     3     4 1   
     7     3    13 1   
     8     3    14 1   
     9     4     5 1   
    10     4    15 1   
    11     4    29 1   
    12     5     6 1   
    13     5     7 1   
    14     5    16 1   
    15     7     8 1   
    16     7    17 1   
    17     7    18 1   
    18     8     9 1   
    19     8    19 1   
    20     8    20 1   
    21     9    10 1   
    22     9    21 1   
    23     9    22 1   
    24    10    11 1   
    25    10    23 1   
    26    10    24 1   
    27    11    25 1   
    28    11    26 1   
    29    11    27 1   
@<TRIPOS>SUBSTRUCTURE
     1 2LE         1 TEMP              0 ****  ****    0 ROOT
