@<TRIPOS>MOLECULE
2LE
   29    29     1     0     0
SMALL
bcc


@<TRIPOS>ATOM
      1 C1          -2.8150     0.5970     0.4450 c5         1 2LE       0.334900
      2 O1          -3.3760     1.5650    -0.3870 oh         1 2LE      -0.606800
      3 C2          -3.3110    -0.7870     0.0190 c5         1 2LE      -0.106400
      4 C3          -2.0510    -1.6430     0.0300 c5         1 2LE      -0.110400
      5 C4          -0.9830    -0.6200    -0.3300 c5         1 2LE       0.149100
      6 O4          -1.4090     0.5620     0.3440 os         1 2LE      -0.443600
      7 C5           0.4250    -0.9760     0.0980 c3         1 2LE      -0.070400
      8 C6           1.4680     0.0690    -0.2800 c3         1 2LE      -0.071400
      9 C7           2.8810    -0.3280     0.1280 c3         1 2LE      -0.076400
     10 C8           3.9270     0.7150    -0.2480 c3         1 2LE      -0.075400
     11 C9           5.3390     0.3120     0.1550 c3         1 2LE      -0.088100
     12 H1          -3.0520     0.8160     1.4930 h2         1 2LE       0.046700
     13 H12         -4.0990    -1.1600     0.6740 hc         1 2LE       0.064700
     14 H22         -3.7220    -0.7270    -0.9910 hc         1 2LE       0.064700
     15 H3          -1.8570    -2.0540     1.0240 hc         1 2LE       0.055700
     16 H4          -0.9930    -0.4520    -1.4190 h1         1 2LE       0.045700
     17 H15          0.4390    -1.1470     1.1800 hc         1 2LE       0.044200
     18 H25          0.6840    -1.9320    -0.3680 hc         1 2LE       0.044200
     19 H16          1.4360     0.2340    -1.3630 hc         1 2LE       0.045700
     20 H26          1.2140     1.0270     0.1820 hc         1 2LE       0.045700
     21 H17          2.9140    -0.4970     1.2100 hc         1 2LE       0.035200
     22 H27          3.1420    -1.2850    -0.3360 hc         1 2LE       0.035200
     23 H18          3.8910     0.8890    -1.3280 hc         1 2LE       0.037700
     24 H28          3.6680     1.6700     0.2200 hc         1 2LE       0.037700
     25 H19          6.0690     1.0730    -0.1230 hc         1 2LE       0.031033
     26 H29          5.4140     0.1610     1.2340 hc         1 2LE       0.031033
     27 H39          5.6360    -0.6200    -0.3280 hc         1 2LE       0.031033
     28 HO1         -3.2290     2.4340     0.0010 ho         1 2LE       0.414000
     29 H3A         -2.0910    -2.4720    -0.6760 hc         1 2LE       0.055700
@<TRIPOS>BOND
     1     1     2 1   
     2     1     3 1   
     3     1     6 1   
     4     1    12 1   
     5     2    28 1   
     6     3     4 1   
     7     3    13 1   
     8     3    14 1   
     9     4     5 1   
    10     4    15 1   
    11     4    29 1   
    12     5     6 1   
    13     5     7 1   
    14     5    16 1   
    15     7     8 1   
    16     7    17 1   
    17     7    18 1   
    18     8     9 1   
    19     8    19 1   
    20     8    20 1   
    21     9    10 1   
    22     9    21 1   
    23     9    22 1   
    24    10    11 1   
    25    10    23 1   
    26    10    24 1   
    27    11    25 1   
    28    11    26 1   
    29    11    27 1   
@<TRIPOS>SUBSTRUCTURE
     1 2LE         1 TEMP              0 ****  ****    0 ROOT
