@<TRIPOS>MOLECULE
2LG
   48    50     1     0     0
SMALL
No Charge or Current Charge


@<TRIPOS>ATOM
      1 C4           5.2140     2.3190     0.9060 c5         1 2LG      -0.012100
      2 C6           6.3860     0.3000     0.0930 c5         1 2LG       0.005900
      3 C7           2.4380    -0.1990     0.2070 cc         1 2LG      -0.045400
      4 C8           1.9080     2.0760     1.0840 ch         1 2LG       0.358000
      5 C13         -0.9310    -1.8860    -0.3010 ca         1 2LG      -0.173600
      6 C15         -1.6570    -0.7460    -0.7240 ca         1 2LG       0.015000
      7 C17         -3.0630    -0.7870    -0.8290 ca         1 2LG      -0.294500
      8 C21         -3.7570    -1.9700    -0.5160 ca         1 2LG       0.015000
      9 C26         -3.6660     3.0520    -0.0980 c3         1 2LG       0.225800
     10 C28         -2.1520     3.2960     0.0900 c3         1 2LG      -0.112600
     11 C1           4.2210     1.2280     0.5880 cd         1 2LG      -0.056300
     12 C2           4.9050     0.1620     0.1380 cc         1 2LG      -0.281300
     13 C3           2.8080     1.0670     0.6410 cd         1 2LG      -0.104000
     14 S5           3.8560    -1.1810    -0.2610 ss         1 2LG       0.360000
     15 C9           6.6130     1.5910     0.9480 c5         1 2LG      -0.077400
     16 N10          1.0970    -0.6010     0.1610 ns         1 2LG      -0.373100
     17 N11          1.1520     2.8830     1.4590 n1         1 2LG      -0.482000
     18 C12          0.5740    -1.8280    -0.2160 c          1 2LG       0.618700
     19 O14          1.2870    -2.7710    -0.5290 o          1 2LG      -0.542100
     20 C16         -1.6450    -3.0690     0.0110 ca         1 2LG       0.204000
     21 C18         -3.0440    -3.1010    -0.0960 ca         1 2LG      -0.135000
     22 Cl19        -0.8530    -4.5300     0.6080 cl         1 2LG      -0.153000
     23 S20         -3.9700     0.6710    -1.3850 sy         1 2LG       1.193600
     24 N22         -4.0930     1.6350     0.0280 n3         1 2LG      -0.792500
     25 O23         -5.3400     0.3020    -1.7550 o          1 2LG      -0.534500
     26 O24         -3.0850     1.3860    -2.3120 o          1 2LG      -0.534500
     27 C25         -3.8150     0.9660     1.3230 c3         1 2LG       0.225800
     28 C27         -4.3440     1.7240     2.5560 c3         1 2LG      -0.112600
     29 H41          4.9940     2.8210     1.8560 hc         1 2LG       0.059700
     30 H42          5.2000     3.0940     0.1310 hc         1 2LG       0.059700
     31 H61          6.9030    -0.5720     0.5110 hc         1 2LG       0.055200
     32 H62          6.7350     0.4320    -0.9380 hc         1 2LG       0.055200
     33 H15         -1.1340     0.1680    -1.0010 ha         1 2LG       0.148000
     34 H21         -4.8430    -2.0180    -0.5930 ha         1 2LG       0.142000
     35 H261        -4.1940     3.6620     0.6460 h1         1 2LG       0.056950
     36 H262        -3.9690     3.4560    -1.0730 h1         1 2LG       0.056950
     37 H281        -1.9260     4.3590    -0.0480 hc         1 2LG       0.045367
     38 H282        -1.8310     3.0140     1.0990 hc         1 2LG       0.045367
     39 H283        -1.5590     2.7280    -0.6340 hc         1 2LG       0.045367
     40 H91          6.8700     1.3220     1.9790 hc         1 2LG       0.047200
     41 H92          7.4280     2.2160     0.5650 hc         1 2LG       0.047200
     42 H10          0.3960     0.0720     0.4420 hn         1 2LG       0.337500
     43 H18         -3.5820    -4.0110     0.1560 ha         1 2LG       0.140000
     44 H251        -4.3010    -0.0180     1.3410 h1         1 2LG       0.056950
     45 H252        -2.7370     0.7950     1.4490 h1         1 2LG       0.056950
     46 H271        -3.8020     2.6630     2.7110 hc         1 2LG       0.045367
     47 H272        -5.4110     1.9470     2.4420 hc         1 2LG       0.045367
     48 H273        -4.2160     1.1110     3.4560 hc         1 2LG       0.045367
@<TRIPOS>BOND
     1     1    11 1   
     2     1    15 1   
     3     1    29 1   
     4     1    30 1   
     5     2    12 1   
     6     2    15 1   
     7     2    31 1   
     8     2    32 1   
     9     3    13 2   
    10     3    14 1   
    11     3    16 1   
    12     4    13 1   
    13     4    17 3   
    14     5     6 ar  
    15     5    18 1   
    16     5    20 ar  
    17     6     7 ar  
    18     6    33 1   
    19     7     8 ar  
    20     7    23 1   
    21     8    21 ar  
    22     8    34 1   
    23     9    10 1   
    24     9    24 1   
    25     9    35 1   
    26     9    36 1   
    27    10    37 1   
    28    10    38 1   
    29    10    39 1   
    30    11    12 2   
    31    11    13 1   
    32    12    14 1   
    33    15    40 1   
    34    15    41 1   
    35    16    18 1   
    36    16    42 1   
    37    18    19 2   
    38    20    21 ar  
    39    20    22 1   
    40    21    43 1   
    41    23    24 1   
    42    23    25 2   
    43    23    26 2   
    44    24    27 1   
    45    27    28 1   
    46    27    44 1   
    47    27    45 1   
    48    28    46 1   
    49    28    47 1   
    50    28    48 1   
@<TRIPOS>SUBSTRUCTURE
     1 2LG         1 TEMP              0 ****  ****    0 ROOT
