@<TRIPOS>MOLECULE
2LG
   48    50     1     0     0
SMALL
abcg2


@<TRIPOS>ATOM
      1 C4           5.6750     2.3130     0.5430 c5         1 2LG      -0.012100
      2 C6           6.5750     0.2390    -0.5090 c5         1 2LG       0.005900
      3 C7           2.6900    -0.0040     0.1290 cc         1 2LG      -0.045400
      4 C8           2.4060     2.2190     1.1230 ch         1 2LG       0.358000
      5 C13         -0.6300    -1.6300    -0.1560 ca         1 2LG      -0.173600
      6 C15         -1.4180    -0.5780    -0.6040 ca         1 2LG       0.015000
      7 C17         -2.8000    -0.6690    -0.5550 ca         1 2LG      -0.294500
      8 C21         -3.4130    -1.8180    -0.0800 ca         1 2LG       0.015000
      9 C26         -3.1590     2.6920     0.6490 c3         1 2LG       0.225800
     10 C28         -2.0430     2.2370     1.5750 c3         1 2LG      -0.112600
     11 C1           4.6160     1.2730     0.3580 cd         1 2LG      -0.056300
     12 C2           5.1150     0.1530    -0.2070 cc         1 2LG      -0.281300
     13 C3           3.2080     1.2020     0.5600 cd         1 2LG      -0.104000
     14 S5           3.9100    -1.0340    -0.5250 ss         1 2LG       0.360000
     15 C9           6.9690     1.4990     0.3030 c5         1 2LG      -0.077400
     16 N10          1.3670    -0.3670     0.2190 ns         1 2LG      -0.373100
     17 N11          1.7320     3.0380     1.5780 n1         1 2LG      -0.482000
     18 C12          0.8520    -1.5220    -0.2810 c          1 2LG       0.618700
     19 O14          1.5460    -2.3650    -0.8060 o          1 2LG      -0.542100
     20 C16         -1.2520    -2.7770     0.3360 ca         1 2LG       0.204000
     21 C18         -2.6340    -2.8690     0.3770 ca         1 2LG      -0.135000
     22 CL19        -0.3250    -4.0900     0.9480 cl         1 2LG      -0.153000
     23 S20         -3.7820     0.7200    -1.0840 sy         1 2LG       1.193600
     24 N22         -4.0730     1.6300     0.2320 n3         1 2LG      -0.792500
     25 O23         -5.0510     0.1740    -1.5360 o          1 2LG      -0.534500
     26 O24         -2.9550     1.5000    -1.9900 o          1 2LG      -0.534500
     27 C25         -5.1090     1.2180     1.1820 c3         1 2LG       0.225800
     28 C27         -6.4000     1.9920     0.9910 c3         1 2LG      -0.112600
     29 H41          5.6590     2.7780     1.5300 hc         1 2LG       0.059700
     30 H42          5.5550     3.1150    -0.1900 hc         1 2LG       0.059700
     31 H61          7.1400    -0.6410    -0.2000 hc         1 2LG       0.055200
     32 H62          6.7450     0.3730    -1.5810 hc         1 2LG       0.055200
     33 H15         -0.9450     0.3010    -1.0240 ha         1 2LG       0.148000
     34 H21         -4.4890    -1.9180    -0.0640 ha         1 2LG       0.142000
     35 H261        -3.7760     3.4370     1.1540 h1         1 2LG       0.056950
     36 H262        -2.7530     3.1860    -0.2310 h1         1 2LG       0.056950
     37 H281        -1.4910     3.1030     1.9390 hc         1 2LG       0.045367
     38 H282        -2.4290     1.6980     2.4420 hc         1 2LG       0.045367
     39 H283        -1.3330     1.5880     1.0650 hc         1 2LG       0.045367
     40 H91          7.3780     1.1870     1.2640 hc         1 2LG       0.047200
     41 H92          7.7350     2.0850    -0.2030 hc         1 2LG       0.047200
     42 H10          0.7630     0.2410     0.7560 hn         1 2LG       0.337500
     43 H18         -3.1060    -3.7630     0.7600 ha         1 2LG       0.140000
     44 H251        -5.2980     0.1470     1.1040 h1         1 2LG       0.056950
     45 H252        -4.7130     1.3730     2.1870 h1         1 2LG       0.056950
     46 H271        -6.2350     3.0670     1.0830 hc         1 2LG       0.045367
     47 H272        -6.8280     1.7950     0.0090 hc         1 2LG       0.045367
     48 H273        -7.1280     1.7010     1.7470 hc         1 2LG       0.045367
@<TRIPOS>BOND
     1     1    11 1   
     2     1    15 1   
     3     1    29 1   
     4     1    30 1   
     5     2    12 1   
     6     2    15 1   
     7     2    31 1   
     8     2    32 1   
     9     3    13 2   
    10     3    14 1   
    11     3    16 1   
    12     4    13 1   
    13     4    17 3   
    14     5     6 ar  
    15     5    18 1   
    16     5    20 ar  
    17     6     7 ar  
    18     6    33 1   
    19     7     8 ar  
    20     7    23 1   
    21     8    21 ar  
    22     8    34 1   
    23     9    10 1   
    24     9    24 1   
    25     9    35 1   
    26     9    36 1   
    27    10    37 1   
    28    10    38 1   
    29    10    39 1   
    30    11    12 2   
    31    11    13 1   
    32    12    14 1   
    33    15    40 1   
    34    15    41 1   
    35    16    18 1   
    36    16    42 1   
    37    18    19 2   
    38    20    21 ar  
    39    20    22 1   
    40    21    43 1   
    41    23    24 1   
    42    23    25 2   
    43    23    26 2   
    44    24    27 1   
    45    27    28 1   
    46    27    44 1   
    47    27    45 1   
    48    28    46 1   
    49    28    47 1   
    50    28    48 1   
@<TRIPOS>SUBSTRUCTURE
     1 2LG         1 TEMP              0 ****  ****    0 ROOT
