@<TRIPOS>MOLECULE
2LI
   73    76     1     0     0
SMALL
No Charge or Current Charge


@<TRIPOS>ATOM
      1 C4           3.9120     3.3770     0.5040 cc         1 2LI      -0.194300
      2 C5           3.9650     1.9630     1.0320 c6         1 2LI       0.021900
      3 C6           2.9030     1.0390     0.3250 c6         1 2LI       0.245500
      4 C7           3.2280    -0.4480     0.6640 ca         1 2LI      -0.114300
      5 C8           3.2950    -0.8490     2.0160 ca         1 2LI      -0.115000
      6 C10          3.7730    -3.1420     1.3580 ca         1 2LI      -0.109000
      7 C15          4.2120    -5.2530    -0.6340 c3         1 2LI      -0.082433
      8 C20         -2.1780     0.5570     0.1930 c3         1 2LI       0.099700
      9 C26         -3.5110     1.1200     0.7530 c3         1 2LI      -0.049100
     10 C28         -5.5550    -0.4010     0.6800 ca         1 2LI      -0.172500
     11 C29         -6.6750    -0.9240     0.0170 ca         1 2LI       0.198500
     12 C30         -6.9960    -0.5010    -1.2800 ca         1 2LI      -0.203000
     13 C31         -6.1870     0.4510    -1.9130 ca         1 2LI       0.198500
     14 F33         -6.4890     0.8620    -3.1630 f          1 2LI      -0.173500
     15 C32         -5.0630     0.9790    -1.2580 ca         1 2LI      -0.172500
     16 C27         -4.7380     0.5560     0.0450 ca         1 2LI      -0.021300
     17 N21         -2.2080    -0.9160     0.1070 ns         1 2LI      -0.511900
     18 C19         -0.9260     1.0920     0.9560 c3         1 2LI       0.142300
     19 O24         -0.8000     2.5130     0.8160 oh         1 2LI      -0.638000
     20 N17          1.5550     1.3410     0.8800 n7         1 2LI      -0.868400
     21 C35          4.4780     4.5190     1.0870 cc         1 2LI       0.250900
     22 C3           3.3070     3.7700    -0.6380 cd         1 2LI      -0.131300
     23 N37          3.5260     5.1510    -0.7060 na         1 2LI      -0.003200
     24 N36          4.2690     5.6200     0.3850 nd         1 2LI      -0.524800
     25 C2           2.5620     2.8400    -1.5600 c6         1 2LI       0.004900
     26 C1           2.9190     1.3620    -1.2210 c6         1 2LI      -0.056400
     27 C9           3.5670    -2.1800     2.3570 ca         1 2LI      -0.109000
     28 C11          3.7110    -2.7850    -0.0090 ca         1 2LI      -0.064300
     29 C12          3.4400    -1.4340    -0.3330 ca         1 2LI      -0.104000
     30 C16          5.1250    -3.3750    -2.0300 c3         1 2LI      -0.082433
     31 C14          2.6390    -3.8780    -2.0280 c3         1 2LI      -0.082433
     32 H5           4.9690     1.5510     0.8580 hc         1 2LI       0.052200
     33 H5A          3.8220     1.9590     2.1200 hc         1 2LI       0.052200
     34 H8           3.1270    -0.1320     2.8160 ha         1 2LI       0.115000
     35 H10          3.9770    -4.1600     1.6750 ha         1 2LI       0.114000
     36 H15          3.3780    -5.6320    -0.0300 hc         1 2LI       0.035478
     37 H15A         4.3550    -5.9490    -1.4690 hc         1 2LI       0.035478
     38 H15B         5.1240    -5.2770    -0.0260 hc         1 2LI       0.035478
     39 H20         -2.0930     0.9120    -0.8420 h1         1 2LI       0.041700
     40 H26         -3.5660     0.9160     1.8290 hc         1 2LI       0.078700
     41 H26A        -3.5050     2.2120     0.6580 hc         1 2LI       0.078700
     42 H28         -5.3200    -0.7440     1.6840 ha         1 2LI       0.139500
     43 H30         -7.8640    -0.9090    -1.7890 ha         1 2LI       0.150000
     44 H32         -4.4450     1.7160    -1.7660 ha         1 2LI       0.139500
     45 HN21        -2.2270    -1.3360    -0.8150 hn         1 2LI       0.315500
     46 H23         -2.3430    -3.9260     1.6460 hc         1 2LI       0.063033
     47 H23A        -3.1640    -3.4170     0.1120 hc         1 2LI       0.063033
     48 H23B        -1.4580    -3.4850     0.1260 hc         1 2LI       0.063033
     49 H19         -1.0230     0.8340     2.0200 h1         1 2LI       0.098700
     50 HO24         0.1830     2.6140     0.7420 ho         1 2LI       0.438000
     51 H18          0.5130    -0.5370     0.8270 h1         1 2LI       0.036700
     52 H18A         0.3600     0.4330    -0.6460 h1         1 2LI       0.036700
     53 HN17         1.6280     1.2640     1.9000 hn         1 2LI       0.432000
     54 H35          5.0420     4.5790     2.0080 h4         1 2LI       0.034100
     55 H2           1.4790     2.9930    -1.4520 hc         1 2LI       0.051200
     56 H2A          2.8030     3.0510    -2.6100 hc         1 2LI       0.051200
     57 H1           3.9230     1.1510    -1.6140 hc         1 2LI       0.045200
     58 H1A          2.2350     0.7050    -1.7720 hc         1 2LI       0.045200
     59 H9           3.6140    -2.4710     3.4050 ha         1 2LI       0.118000
     60 H12          3.3920    -1.1620    -1.3810 ha         1 2LI       0.110000
     61 H16          6.0330    -3.2860    -1.4220 hc         1 2LI       0.035478
     62 H16A         5.3200    -4.1070    -2.8240 hc         1 2LI       0.035478
     63 H16B         4.9450    -2.4080    -2.5120 hc         1 2LI       0.035478
     64 H14          2.4280    -2.9150    -2.5090 hc         1 2LI       0.035478
     65 H14A         2.7420    -4.6260    -2.8230 hc         1 2LI       0.035478
     66 H14B         1.7680    -4.1480    -1.4190 hc         1 2LI       0.035478
     67 HN37         3.2010     5.7770    -1.4420 hn         1 2LI       0.366000
     68 C13          3.9210    -3.8160    -1.1530 c3         1 2LI      -0.000700
     69 C18          0.4090     0.4890     0.4490 c3         1 2LI       0.135800
     70 C22         -2.2540    -1.7890     1.1710 c          1 2LI       0.603100
     71 F34         -7.4500    -1.8430     0.6330 f          1 2LI      -0.173500
     72 C23         -2.3090    -3.2580     0.7780 c3         1 2LI      -0.184100
     73 O25         -2.2510    -1.4230     2.3360 o          1 2LI      -0.608100
@<TRIPOS>BOND
     1     1     2 1   
     2     1    21 1   
     3     1    22 2   
     4     2     3 1   
     5     2    32 1   
     6     2    33 1   
     7     3     4 1   
     8     3    20 1   
     9     3    26 1   
    10     4     5 ar  
    11     4    29 ar  
    12     5    27 ar  
    13     5    34 1   
    14     6    27 ar  
    15     6    28 ar  
    16     6    35 1   
    17     7    36 1   
    18     7    37 1   
    19     7    38 1   
    20     7    68 1   
    21     8     9 1   
    22     8    17 1   
    23     8    18 1   
    24     8    39 1   
    25     9    16 1   
    26     9    40 1   
    27     9    41 1   
    28    10    11 ar  
    29    10    16 ar  
    30    10    42 1   
    31    11    12 ar  
    32    11    71 1   
    33    12    13 ar  
    34    12    43 1   
    35    13    14 1   
    36    13    15 ar  
    37    15    16 ar  
    38    15    44 1   
    39    17    45 1   
    40    17    70 1   
    41    18    19 1   
    42    18    49 1   
    43    18    69 1   
    44    19    50 1   
    45    20    53 1   
    46    20    69 1   
    47    21    24 2   
    48    21    54 1   
    49    22    23 1   
    50    22    25 1   
    51    23    24 1   
    52    23    67 1   
    53    25    26 1   
    54    25    55 1   
    55    25    56 1   
    56    26    57 1   
    57    26    58 1   
    58    27    59 1   
    59    28    29 ar  
    60    28    68 1   
    61    29    60 1   
    62    30    61 1   
    63    30    62 1   
    64    30    63 1   
    65    30    68 1   
    66    31    64 1   
    67    31    65 1   
    68    31    66 1   
    69    31    68 1   
    70    46    72 1   
    71    47    72 1   
    72    48    72 1   
    73    51    69 1   
    74    52    69 1   
    75    70    72 1   
    76    70    73 2   
@<TRIPOS>SUBSTRUCTURE
     1 2LI         1 TEMP              0 ****  ****    0 ROOT
