@<TRIPOS>MOLECULE
2LI
   73    76     1     0     0
SMALL
bcc


@<TRIPOS>ATOM
      1 C4           4.0380     2.9390     0.4040 cc         1 2LI      -0.259600
      2 C5           3.8140     1.5310     0.8430 c6         1 2LI       0.021900
      3 C6           2.6410     0.8960     0.0650 c6         1 2LI       0.245500
      4 C7           2.6620    -0.6140     0.3450 ca         1 2LI      -0.114300
      5 C8           1.9300    -1.1440     1.4080 ca         1 2LI      -0.133000
      6 C10          2.7460    -3.3560     0.9150 ca         1 2LI      -0.127000
      7 C15          4.2830    -5.2260    -0.6280 c3         1 2LI      -0.082433
      8 C20         -2.3040     0.7700     0.2360 c3         1 2LI       0.099700
      9 C26         -3.5440     1.1990     1.0360 c3         1 2LI      -0.049100
     10 C28         -5.3300    -0.5700     1.0820 ca         1 2LI      -0.190500
     11 C29         -6.4620    -1.1410     0.5340 ca         1 2LI       0.163400
     12 C30         -7.0920    -0.6320    -0.5850 ca         1 2LI      -0.221000
     13 C31         -6.5330     0.5000    -1.1470 ca         1 2LI       0.163400
     14 F33         -7.1220     1.0280    -2.2290 f          1 2LI      -0.138400
     15 C32         -5.4050     1.1100    -0.6380 ca         1 2LI      -0.190500
     16 C27         -4.7930     0.5700     0.4910 ca         1 2LI      -0.021300
     17 N21         -2.1750    -0.6730     0.1470 ns         1 2LI      -0.578900
     18 C19         -1.0180     1.4430     0.7590 c3         1 2LI       0.119100
     19 O24         -1.1770     2.8420     0.8300 oh         1 2LI      -0.575800
     20 N17          1.4190     1.5460     0.5090 n7         1 2LI      -0.813200
     21 C35          4.7370     4.0190     0.9720 cc         1 2LI       0.316200
     22 C3           3.5350     3.4400    -0.7730 cd         1 2LI      -0.080600
     23 N37          3.9370     4.7220    -0.8420 na         1 2LI      -0.003600
     24 N36          4.6680     5.0960     0.2070 nd         1 2LI      -0.524800
     25 C2           2.6990     2.6930    -1.7450 c6         1 2LI       0.004900
     26 C1           2.8180     1.2000    -1.4380 c6         1 2LI      -0.056400
     27 C9           1.9680    -2.4990     1.6830 ca         1 2LI      -0.127000
     28 C11          3.5030    -2.8630    -0.1430 ca         1 2LI      -0.064300
     29 C12          3.4410    -1.4910    -0.4030 ca         1 2LI      -0.122000
     30 C16          5.8530    -3.3110    -0.8340 c3         1 2LI      -0.082433
     31 C14          3.9870    -3.6050    -2.4820 c3         1 2LI      -0.082433
     32 H5           4.7110     0.9270     0.6800 hc         1 2LI       0.052200
     33 H5A          3.6090     1.4730     1.9170 hc         1 2LI       0.052200
     34 H8           1.3110    -0.5040     2.0240 ha         1 2LI       0.133000
     35 H10          2.7510    -4.4100     1.1560 ha         1 2LI       0.132000
     36 H15          3.2660    -5.6040    -0.7510 hc         1 2LI       0.035478
     37 H15A         4.9340    -5.8210    -1.2720 hc         1 2LI       0.035478
     38 H15B         4.5910    -5.4090     0.4030 hc         1 2LI       0.035478
     39 H20         -2.4470     1.1000    -0.7980 h1         1 2LI       0.041700
     40 H26         -3.4180     0.9380     2.0860 hc         1 2LI       0.078700
     41 H26A        -3.6280     2.2840     0.9800 hc         1 2LI       0.078700
     42 H28         -4.8720    -1.0040     1.9620 ha         1 2LI       0.157500
     43 H30         -7.9810    -1.0920    -0.9960 ha         1 2LI       0.168000
     44 H32         -5.0080     1.9990    -1.1140 ha         1 2LI       0.157500
     45 HN21        -2.2450    -1.0780    -0.7710 hn         1 2LI       0.315500
     46 H23         -1.5850    -3.5660     1.6500 hc         1 2LI       0.063033
     47 H23A        -2.8570    -3.3280     0.4450 hc         1 2LI       0.063033
     48 H23B        -1.1700    -3.1240    -0.0120 hc         1 2LI       0.063033
     49 H19         -0.8570     1.1160     1.7910 h1         1 2LI       0.098700
     50 HO24        -1.1700     3.1940    -0.0670 ho         1 2LI       0.399000
     51 H18          0.1900    -0.0380    -0.2040 h1         1 2LI       0.036700
     52 H18A         0.0650     1.4680    -1.0890 h1         1 2LI       0.036700
     53 HN17         1.3590     1.5200     1.5200 hn         1 2LI       0.376800
     54 H35          5.2830     4.0500     1.9040 h4         1 2LI       0.034100
     55 H2           1.6580     3.0220    -1.6750 hc         1 2LI       0.051200
     56 H2A          3.0190     2.8830    -2.7730 hc         1 2LI       0.051200
     57 H1           3.8030     0.8620    -1.7650 hc         1 2LI       0.045200
     58 H1A          2.0890     0.6390    -2.0270 hc         1 2LI       0.045200
     59 H9           1.3850    -2.8960     2.5050 ha         1 2LI       0.136000
     60 H12          4.0300    -1.0990    -1.2220 ha         1 2LI       0.128000
     61 H16          6.1740    -3.4200     0.2040 hc         1 2LI       0.035478
     62 H16A         6.5140    -3.9210    -1.4530 hc         1 2LI       0.035478
     63 H16B         6.0010    -2.2690    -1.1210 hc         1 2LI       0.035478
     64 H14          4.1140    -2.5840    -2.8460 hc         1 2LI       0.035478
     65 H14A         4.6000    -4.2530    -3.1100 hc         1 2LI       0.035478
     66 H14B         2.9430    -3.8840    -2.6300 hc         1 2LI       0.035478
     67 HN37         3.7360     5.3880    -1.5710 hn         1 2LI       0.315700
     68 C13          4.3930    -3.7500    -1.0090 c3         1 2LI      -0.000700
     69 C18          0.1900     1.0500    -0.0810 c3         1 2LI       0.135800
     70 C22         -1.9750    -1.5120     1.1820 c          1 2LI       0.670100
     71 F34         -6.9790    -2.2350     1.1110 f          1 2LI      -0.138400
     72 C23         -1.8880    -2.9690     0.7940 c3         1 2LI      -0.184100
     73 O25         -1.8820    -1.1360     2.3420 o          1 2LI      -0.608100
@<TRIPOS>BOND
     1     1     2 1   
     2     1    21 1   
     3     1    22 2   
     4     2     3 1   
     5     2    32 1   
     6     2    33 1   
     7     3     4 1   
     8     3    20 1   
     9     3    26 1   
    10     4     5 ar  
    11     4    29 ar  
    12     5    27 ar  
    13     5    34 1   
    14     6    27 ar  
    15     6    28 ar  
    16     6    35 1   
    17     7    36 1   
    18     7    37 1   
    19     7    38 1   
    20     7    68 1   
    21     8     9 1   
    22     8    17 1   
    23     8    18 1   
    24     8    39 1   
    25     9    16 1   
    26     9    40 1   
    27     9    41 1   
    28    10    11 ar  
    29    10    16 ar  
    30    10    42 1   
    31    11    12 ar  
    32    11    71 1   
    33    12    13 ar  
    34    12    43 1   
    35    13    14 1   
    36    13    15 ar  
    37    15    16 ar  
    38    15    44 1   
    39    17    45 1   
    40    17    70 1   
    41    18    19 1   
    42    18    49 1   
    43    18    69 1   
    44    19    50 1   
    45    20    53 1   
    46    20    69 1   
    47    21    24 2   
    48    21    54 1   
    49    22    23 1   
    50    22    25 1   
    51    23    24 1   
    52    23    67 1   
    53    25    26 1   
    54    25    55 1   
    55    25    56 1   
    56    26    57 1   
    57    26    58 1   
    58    27    59 1   
    59    28    29 ar  
    60    28    68 1   
    61    29    60 1   
    62    30    61 1   
    63    30    62 1   
    64    30    63 1   
    65    30    68 1   
    66    31    64 1   
    67    31    65 1   
    68    31    66 1   
    69    31    68 1   
    70    46    72 1   
    71    47    72 1   
    72    48    72 1   
    73    51    69 1   
    74    52    69 1   
    75    70    72 1   
    76    70    73 2   
@<TRIPOS>SUBSTRUCTURE
     1 2LI         1 TEMP              0 ****  ****    0 ROOT
