@<TRIPOS>MOLECULE
2LJ
   42    42     1     0     0
SMALL
No Charge or Current Charge


@<TRIPOS>ATOM
      1 C4           8.9360    14.3440    37.9590 c          1 2LJ       0.595200
      2 C6           7.6180    11.6320    37.0540 c2         1 2LJ       0.416200
      3 C7           6.8250    10.3550    37.2280 c3         1 2LJ      -0.122700
      4 C8           6.2090     9.8490    35.9080 c3         1 2LJ      -0.077100
      5 N1           8.2210    16.0280    35.9070 ns         1 2LJ      -0.550600
      6 N3           9.5530    15.5240    37.6730 ns         1 2LJ      -0.470500
      7 C4A          7.7910    13.9940    37.0580 cc         1 2LJ      -0.187600
      8 O4           9.3240    13.6510    38.8880 o          1 2LJ      -0.561000
      9 C2           9.2640    16.3970    36.6810 c          1 2LJ       0.620000
     10 O2           9.8880    17.4220    36.4950 o          1 2LJ      -0.564000
     11 C8A          7.4910    14.8990    36.0620 cd         1 2LJ       0.391600
     12 N8           6.4690    14.6900    35.1940 nu         1 2LJ      -0.820200
     13 C1           5.7180    15.7170    34.4320 c3         1 2LJ       0.194800
     14 C10          6.1340    15.8150    32.9280 c3         1 2LJ       0.157300
     15 O6           5.8820    14.5690    32.2350 oh         1 2LJ      -0.715000
     16 C3           7.6270    16.2370    32.7250 c3         1 2LJ       0.135300
     17 O3           7.9350    17.4460    33.4440 oh         1 2LJ      -0.747000
     18 C9           8.0480    16.4480    31.2390 c3         1 2LJ       0.140300
     19 O1           9.3710    17.0250    31.2140 oh         1 2LJ      -0.721000
     20 C5           7.1130    17.3780    30.4140 c3         1 2LJ       0.170600
     21 O5           7.7300    17.6720    29.1440 oh         1 2LJ      -0.714000
     22 H1           8.6640    11.5570    36.7630 h4         1 2LJ       0.004800
     23 H2           6.0250    10.5030    37.9630 hc         1 2LJ       0.050200
     24 H3           7.4800     9.5760    37.6350 hc         1 2LJ       0.050200
     25 H4           5.6540     8.9180    36.0760 hc         1 2LJ       0.032367
     26 H5           5.5160    10.5910    35.4930 hc         1 2LJ       0.032367
     27 H6           6.9920     9.6530    35.1650 hc         1 2LJ       0.032367
     28 H7          10.3260    15.7740    38.2680 hn         1 2LJ       0.344500
     29 H9           5.9850    13.8150    35.4100 hn         1 2LJ       0.541000
     30 H10          5.8380    16.7040    34.9010 h1         1 2LJ       0.065700
     31 H11          4.6440    15.4920    34.4800 h1         1 2LJ       0.065700
     32 H12          5.5050    16.6020    32.4900 h1         1 2LJ       0.052700
     33 H13          4.9750    14.2710    32.4790 ho         1 2LJ       0.512000
     34 H14          8.2500    15.4200    33.1140 h1         1 2LJ       0.057700
     35 H15          8.6960    17.8180    32.9230 ho         1 2LJ       0.543000
     36 H16          8.0540    15.4650    30.7460 h1         1 2LJ       0.076700
     37 H17          9.4350    17.4100    30.3030 ho         1 2LJ       0.509000
     38 H18          6.9270    18.3060    30.9730 h1         1 2LJ       0.032200
     39 H19          6.1470    16.8780    30.2620 h1         1 2LJ       0.032200
     40 H20          7.0780    18.1960    28.6210 ho         1 2LJ       0.505000
     41 H8           8.0300    16.6460    35.1230 hn         1 2LJ       0.487000
     42 N5           7.0620    12.8000    37.2290 ne         1 2LJ      -0.596300
@<TRIPOS>BOND
     1     1     6 1   
     2     1     7 1   
     3     1     8 2   
     4     2     3 1   
     5     2    22 1   
     6     2    42 2   
     7     3     4 1   
     8     3    23 1   
     9     3    24 1   
    10     4    25 1   
    11     4    26 1   
    12     4    27 1   
    13     5     9 1   
    14     5    11 1   
    15     5    41 1   
    16     6     9 1   
    17     6    28 1   
    18     7    11 2   
    19     7    42 1   
    20     9    10 2   
    21    11    12 1   
    22    12    13 1   
    23    12    29 1   
    24    13    14 1   
    25    13    30 1   
    26    13    31 1   
    27    14    15 1   
    28    14    16 1   
    29    14    32 1   
    30    15    33 1   
    31    16    17 1   
    32    16    18 1   
    33    16    34 1   
    34    17    35 1   
    35    18    19 1   
    36    18    20 1   
    37    18    36 1   
    38    19    37 1   
    39    20    21 1   
    40    20    38 1   
    41    20    39 1   
    42    21    40 1   
@<TRIPOS>SUBSTRUCTURE
     1 2LJ         1 TEMP              0 ****  ****    0 ROOT
