@<TRIPOS>MOLECULE
2LJ
   42    42     1     0     0
SMALL
abcg2


@<TRIPOS>ATOM
      1 C4           9.1300    14.2080    37.6430 c          1 2LJ       0.595200
      2 C6           7.7630    11.5760    37.2810 c2         1 2LJ       0.416200
      3 C7           7.0250    10.2860    37.0920 c3         1 2LJ      -0.122700
      4 C8           5.8940    10.3150    36.0730 c3         1 2LJ      -0.077100
      5 N1           8.0860    16.1240    35.9120 ns         1 2LJ      -0.550600
      6 N3           9.5740    15.5420    37.5720 ns         1 2LJ      -0.470500
      7 C4A          8.0740    13.8660    36.7420 cc         1 2LJ      -0.187600
      8 O4           9.6690    13.4630    38.4680 o          1 2LJ      -0.561000
      9 C2           9.1210    16.5150    36.7300 c          1 2LJ       0.620000
     10 O2           9.5870    17.6470    36.6900 o          1 2LJ      -0.564000
     11 C8A          7.5670    14.8590    35.8920 cd         1 2LJ       0.391600
     12 N8           6.5730    14.5850    35.0390 nu         1 2LJ      -0.820200
     13 C1           5.7420    15.5330    34.3180 c3         1 2LJ       0.194800
     14 C10          6.1260    15.7290    32.8470 c3         1 2LJ       0.157300
     15 O6           6.0780    14.5030    32.1240 oh         1 2LJ      -0.715000
     16 C3           7.5390    16.2710    32.6720 c3         1 2LJ       0.135300
     17 O3           7.6250    17.4790    33.4360 oh         1 2LJ      -0.747000
     18 C9           7.9710    16.5270    31.2230 c3         1 2LJ       0.140300
     19 O1           9.2890    17.0950    31.2530 oh         1 2LJ      -0.721000
     20 C5           7.0760    17.4920    30.4740 c3         1 2LJ       0.170600
     21 O5           7.4950    17.5290    29.1090 oh         1 2LJ      -0.714000
     22 H1           8.5790    11.5680    38.0020 h4         1 2LJ       0.004800
     23 H2           6.6480     9.9730    38.0730 hc         1 2LJ       0.050200
     24 H3           7.7630     9.5200    36.8210 hc         1 2LJ       0.050200
     25 H4           5.4200     9.3340    36.0050 hc         1 2LJ       0.032367
     26 H5           5.1310    11.0440    36.3520 hc         1 2LJ       0.032367
     27 H6           6.2620    10.5860    35.0820 hc         1 2LJ       0.032367
     28 H7          10.3280    15.7960    38.1970 hn         1 2LJ       0.344500
     29 H9           6.2680    13.6220    35.0970 hn         1 2LJ       0.541000
     30 H10          5.7360    16.4960    34.8270 h1         1 2LJ       0.065700
     31 H11          4.7200    15.1520    34.3470 h1         1 2LJ       0.065700
     32 H12          5.4110    16.4480    32.4360 h1         1 2LJ       0.052700
     33 H13          5.1640    14.1920    32.1050 ho         1 2LJ       0.512000
     34 H14          8.2390    15.5300    33.0790 h1         1 2LJ       0.057700
     35 H15          8.4620    17.9020    33.1900 ho         1 2LJ       0.543000
     36 H16          7.9850    15.5730    30.6910 h1         1 2LJ       0.076700
     37 H17          9.9190    16.3990    31.4810 ho         1 2LJ       0.509000
     38 H18          7.1430    18.4860    30.9280 h1         1 2LJ       0.032200
     39 H19          6.0400    17.1500    30.5420 h1         1 2LJ       0.032200
     40 H20          6.9250    18.1480    28.6390 ho         1 2LJ       0.505000
     41 H8           7.8340    16.7930    35.1810 hn         1 2LJ       0.487000
     42 N5           7.4490    12.6290    36.6320 ne         1 2LJ      -0.596300
@<TRIPOS>BOND
     1     1     6 1   
     2     1     7 1   
     3     1     8 2   
     4     2     3 1   
     5     2    22 1   
     6     2    42 2   
     7     3     4 1   
     8     3    23 1   
     9     3    24 1   
    10     4    25 1   
    11     4    26 1   
    12     4    27 1   
    13     5     9 1   
    14     5    11 1   
    15     5    41 1   
    16     6     9 1   
    17     6    28 1   
    18     7    11 2   
    19     7    42 1   
    20     9    10 2   
    21    11    12 1   
    22    12    13 1   
    23    12    29 1   
    24    13    14 1   
    25    13    30 1   
    26    13    31 1   
    27    14    15 1   
    28    14    16 1   
    29    14    32 1   
    30    15    33 1   
    31    16    17 1   
    32    16    18 1   
    33    16    34 1   
    34    17    35 1   
    35    18    19 1   
    36    18    20 1   
    37    18    36 1   
    38    19    37 1   
    39    20    21 1   
    40    20    38 1   
    41    20    39 1   
    42    21    40 1   
@<TRIPOS>SUBSTRUCTURE
     1 2LJ         1 TEMP              0 ****  ****    0 ROOT
