@<TRIPOS>MOLECULE
2LK
   40    43     1     0     0
SMALL
No Charge or Current Charge


@<TRIPOS>ATOM
      1 CAU          4.3600     0.7050     2.4240 c3         1 2LK      -0.137400
      2 CAN          4.5210     0.9110     0.9430 cc         1 2LK       0.196300
      3 OAM          5.6410     1.5770     0.5120 os         1 2LK      -0.074700
      4 NAL          5.6190     1.6400    -0.9180 nc         1 2LK      -0.368300
      5 CAK          4.5160     1.0000    -1.2590 cd         1 2LK       0.291300
      6 CAV          4.1340     0.9550    -2.7150 c3         1 2LK      -0.134400
      7 CAJ          3.8000     0.4810    -0.1430 cd         1 2LK      -0.173000
      8 CAD          2.4880    -0.2150    -0.1430 ca         1 2LK      -0.027000
      9 CAC          2.1110    -1.0460    -1.2290 ca         1 2LK      -0.035000
     10 CAE          1.5830    -0.0710     0.9450 ca         1 2LK      -0.087000
     11 CAF          0.3390    -0.7310     0.9490 ca         1 2LK      -0.108000
     12 CAA          0.0200    -1.5370    -0.1510 ca         1 2LK      -0.076200
     13 CAB          0.8680    -1.6960    -1.2060 ca         1 2LK       0.063400
     14 NAI          0.3400    -2.5450    -2.1680 nc         1 2LK      -0.567100
     15 CAH         -0.8590    -2.8770    -1.6420 cd         1 2LK       0.416700
     16 NAG         -1.1040    -2.2760    -0.3960 na         1 2LK      -0.184600
     17 CAX         -2.2810    -2.3770     0.4820 c3         1 2LK       0.131900
     18 CAQ         -3.0320    -1.0600     0.6800 ca         1 2LK      -0.117300
     19 CAP         -3.2120    -0.1570    -0.3900 ca         1 2LK      -0.084000
     20 CAO         -3.9020     1.0510    -0.1900 ca         1 2LK      -0.102000
     21 CAT         -4.4180     1.3630     1.0780 ca         1 2LK       0.129000
     22 Cl          -5.2810     2.8760     1.3270 cl         1 2LK      -0.195000
     23 CAS         -4.2490     0.4680     2.1460 ca         1 2LK      -0.102000
     24 CAR         -3.5590    -0.7410     1.9470 ca         1 2LK      -0.084000
     25 H1           5.3310     0.7510     2.9310 hc         1 2LK       0.063033
     26 H2           3.7190     1.4790     2.8600 hc         1 2LK       0.063033
     27 H3           3.9220    -0.2760     2.6400 hc         1 2LK       0.063033
     28 H4           4.4380     0.0060    -3.1720 hc         1 2LK       0.058033
     29 H5           3.0520     1.0730    -2.8450 hc         1 2LK       0.058033
     30 H6           4.6160     1.7620    -3.2800 hc         1 2LK       0.058033
     31 H7           2.7780    -1.2240    -2.0640 ha         1 2LK       0.132000
     32 H8           1.8170     0.5810     1.7790 ha         1 2LK       0.115000
     33 H9          -0.3530    -0.6080     1.7790 ha         1 2LK       0.121000
     34 H10         -1.5910    -3.5330    -2.0990 h5         1 2LK       0.060800
     35 H11         -2.9710    -3.1180     0.0580 h1         1 2LK       0.066200
     36 H12         -1.9470    -2.7610     1.4540 h1         1 2LK       0.066200
     37 H13         -2.8190    -0.3870    -1.3780 ha         1 2LK       0.120500
     38 H14         -4.0360     1.7450    -1.0150 ha         1 2LK       0.133500
     39 H15         -4.6520     0.7110     3.1250 ha         1 2LK       0.133500
     40 H16         -3.4340    -1.4280     2.7820 ha         1 2LK       0.120500
@<TRIPOS>BOND
     1     1     2 1   
     2     1    25 1   
     3     1    26 1   
     4     1    27 1   
     5     2     3 1   
     6     2     7 2   
     7     3     4 1   
     8     4     5 2   
     9     5     6 1   
    10     5     7 1   
    11     6    28 1   
    12     6    29 1   
    13     6    30 1   
    14     7     8 1   
    15     8     9 ar  
    16     8    10 ar  
    17     9    13 ar  
    18     9    31 1   
    19    10    11 ar  
    20    10    32 1   
    21    11    12 ar  
    22    11    33 1   
    23    12    13 ar  
    24    12    16 1   
    25    13    14 1   
    26    14    15 2   
    27    15    16 1   
    28    15    34 1   
    29    16    17 1   
    30    17    18 1   
    31    17    35 1   
    32    17    36 1   
    33    18    19 ar  
    34    18    24 ar  
    35    19    20 ar  
    36    19    37 1   
    37    20    21 ar  
    38    20    38 1   
    39    21    22 1   
    40    21    23 ar  
    41    23    24 ar  
    42    23    39 1   
    43    24    40 1   
@<TRIPOS>SUBSTRUCTURE
     1 2LK         1 TEMP              0 ****  ****    0 ROOT
