@<TRIPOS>MOLECULE
2LK
   40    43     1     0     0
SMALL
bcc


@<TRIPOS>ATOM
      1 CAU          4.7430     0.1370     2.2860 c3         1 2LK      -0.137400
      2 CAN          4.6640     0.6590     0.9030 cc         1 2LK       0.306000
      3 OAM          5.6750     1.4140     0.4660 os         1 2LK      -0.119100
      4 NAL          5.4470     1.7970    -0.8240 nc         1 2LK      -0.368300
      5 CAK          4.3070     1.2720    -1.1670 cd         1 2LK       0.356600
      6 CAV          3.7360     1.4970    -2.5220 c3         1 2LK      -0.134400
      7 CAJ          3.7450     0.5240    -0.0900 cd         1 2LK      -0.303600
      8 CAD          2.4650    -0.1910    -0.0600 ca         1 2LK      -0.027000
      9 CAC          2.1420    -1.0890    -1.0690 ca         1 2LK      -0.053000
     10 CAE          1.5580     0.0460     0.9940 ca         1 2LK      -0.105000
     11 CAF          0.3370    -0.5960     1.0730 ca         1 2LK      -0.126000
     12 CAA          0.0320    -1.4880     0.0520 ca         1 2LK      -0.076200
     13 CAB          0.9120    -1.7400    -1.0120 ca         1 2LK       0.063400
     14 NAI          0.3610    -2.6620    -1.8710 nc         1 2LK      -0.567100
     15 CAH         -0.7960    -2.9480    -1.3470 cd         1 2LK       0.416700
     16 NAG         -1.0580    -2.2830    -0.1920 na         1 2LK      -0.155300
     17 CAX         -2.2630    -2.3650     0.6030 c3         1 2LK       0.102600
     18 CAQ         -3.0230    -1.0640     0.6210 ca         1 2LK      -0.117300
     19 CAP         -3.3590    -0.4210    -0.5660 ca         1 2LK      -0.102000
     20 CAO         -4.0630     0.7710    -0.5550 ca         1 2LK      -0.120000
     21 CAT         -4.4350     1.3250     0.6620 ca         1 2LK       0.037400
     22 CL          -5.3120     2.8190     0.6850 cl         1 2LK      -0.103400
     23 CAS         -4.1130     0.7050     1.8570 ca         1 2LK      -0.120000
     24 CAR         -3.4050    -0.4890     1.8260 ca         1 2LK      -0.102000
     25 H1           5.7120    -0.3260     2.4750 hc         1 2LK       0.063033
     26 H2           4.6050     0.9320     3.0200 hc         1 2LK       0.063033
     27 H3           3.9700    -0.6110     2.4500 hc         1 2LK       0.063033
     28 H4           3.8050     0.5970    -3.1330 hc         1 2LK       0.058033
     29 H5           2.6820     1.7640    -2.4540 hc         1 2LK       0.058033
     30 H6           4.2670     2.2950    -3.0380 hc         1 2LK       0.058033
     31 H7           2.8320    -1.2920    -1.8780 ha         1 2LK       0.150000
     32 H8           1.8190     0.7660     1.7590 ha         1 2LK       0.133000
     33 H9          -0.3460    -0.3950     1.8870 ha         1 2LK       0.139000
     34 H10         -1.5110    -3.6470    -1.7590 h5         1 2LK       0.060800
     35 H11         -2.8760    -3.1620     0.1770 h1         1 2LK       0.066200
     36 H12         -2.0060    -2.6700     1.6190 h1         1 2LK       0.066200
     37 H13         -3.0730    -0.8480    -1.5200 ha         1 2LK       0.138500
     38 H14         -4.3180     1.2630    -1.4840 ha         1 2LK       0.151500
     39 H15         -4.3990     1.1450     2.8020 ha         1 2LK       0.151500
     40 H16         -3.1470    -0.9700     2.7620 ha         1 2LK       0.138500
@<TRIPOS>BOND
     1     1     2 1   
     2     1    25 1   
     3     1    26 1   
     4     1    27 1   
     5     2     3 1   
     6     2     7 2   
     7     3     4 1   
     8     4     5 2   
     9     5     6 1   
    10     5     7 1   
    11     6    28 1   
    12     6    29 1   
    13     6    30 1   
    14     7     8 1   
    15     8     9 ar  
    16     8    10 ar  
    17     9    13 ar  
    18     9    31 1   
    19    10    11 ar  
    20    10    32 1   
    21    11    12 ar  
    22    11    33 1   
    23    12    13 ar  
    24    12    16 1   
    25    13    14 1   
    26    14    15 2   
    27    15    16 1   
    28    15    34 1   
    29    16    17 1   
    30    17    18 1   
    31    17    35 1   
    32    17    36 1   
    33    18    19 ar  
    34    18    24 ar  
    35    19    20 ar  
    36    19    37 1   
    37    20    21 ar  
    38    20    38 1   
    39    21    22 1   
    40    21    23 ar  
    41    23    24 ar  
    42    23    39 1   
    43    24    40 1   
@<TRIPOS>SUBSTRUCTURE
     1 2LK         1 TEMP              0 ****  ****    0 ROOT
