@<TRIPOS>MOLECULE
2LL
   62    66     1     0     0
SMALL
No Charge or Current Charge


@<TRIPOS>ATOM
      1 C25         -5.8960    -2.3530     1.3480 c3         1 2LL      -0.137400
      2 C24         -6.1890    -1.0020     0.7550 cc         1 2LL       0.195300
      3 O1          -7.4880    -0.5610     0.7900 os         1 2LL      -0.074700
      4 N3          -7.5460     0.7460     0.2100 nc         1 2LL      -0.368300
      5 C1          -6.2960     1.0190    -0.1150 cd         1 2LL       0.292300
      6 C           -6.0090     2.3070    -0.8420 c3         1 2LL      -0.134400
      7 C2          -5.3860    -0.0170     0.2370 cd         1 2LL      -0.172000
      8 C3          -3.9300    -0.0900    -0.0480 ca         1 2LL      -0.026000
      9 C8          -3.1390     1.0870    -0.0750 ca         1 2LL      -0.038000
     10 C7          -1.7660     0.9950    -0.3410 ca         1 2LL       0.071400
     11 N           -0.8480     2.0330    -0.4010 nc         1 2LL      -0.575100
     12 C9           0.3000     1.3840    -0.6810 cd         1 2LL       0.422800
     13 C10          1.6050     2.1210    -0.8510 c3         1 2LL      -0.091700
     14 C11          2.5010     2.0630     0.4050 c3         1 2LL      -0.028100
     15 C12          3.8430     2.7440     0.1800 ca         1 2LL      -0.085300
     16 C17          4.9370     2.0060    -0.3130 ca         1 2LL      -0.106500
     17 C16          6.1770     2.6340    -0.5270 ca         1 2LL      -0.108500
     18 C15          6.3290     4.0030    -0.2500 ca         1 2LL      -0.108000
     19 C14          5.2400     4.7440     0.2390 ca         1 2LL      -0.108500
     20 C13          4.0000     4.1170     0.4530 ca         1 2LL      -0.106500
     21 N1           0.1520    -0.0100    -0.7980 na         1 2LL      -0.179600
     22 C6          -1.1820    -0.2170    -0.5730 ca         1 2LL      -0.081200
     23 C5          -1.9120    -1.4100    -0.5620 ca         1 2LL      -0.113000
     24 C4          -3.2940    -1.3370    -0.2940 ca         1 2LL      -0.089000
     25 C18          1.1600    -1.0620    -1.0260 c3         1 2LL       0.076600
     26 C19          1.5320    -1.8320     0.2630 c3         1 2LL       0.143800
     27 N2           2.5830    -2.8690     0.0940 n3         1 2LL      -0.719600
     28 C23          2.7190    -3.7390     1.3050 c6         1 2LL       0.125800
     29 C22          3.8080    -4.8350     1.1140 c6         1 2LL       0.152600
     30 O            5.0720    -4.2290     0.7560 os         1 2LL      -0.446000
     31 C21          4.9890    -3.4440    -0.4570 c6         1 2LL       0.152600
     32 C20          3.9220    -2.3190    -0.3050 c6         1 2LL       0.125800
     33 H1          -6.6640    -2.6320     2.0790 hc         1 2LL       0.062700
     34 H2          -5.8790    -3.1260     0.5710 hc         1 2LL       0.062700
     35 H3          -4.9300    -2.3560     1.8660 hc         1 2LL       0.062700
     36 H4          -5.6560     3.0790    -0.1490 hc         1 2LL       0.057700
     37 H5          -5.2500     2.1630    -1.6190 hc         1 2LL       0.057700
     38 H6          -6.9070     2.6960    -1.3360 hc         1 2LL       0.057700
     39 H7          -3.5650     2.0600     0.1430 ha         1 2LL       0.132000
     40 H8           2.1530     1.7090    -1.7060 hc         1 2LL       0.063700
     41 H9           1.4090     3.1710    -1.0970 hc         1 2LL       0.063700
     42 H10          1.9720     2.5310     1.2460 hc         1 2LL       0.058700
     43 H11          2.6610     1.0180     0.6920 hc         1 2LL       0.058700
     44 H12          4.8280     0.9460    -0.5320 ha         1 2LL       0.110500
     45 H13          7.0190     2.0600    -0.9070 ha         1 2LL       0.113000
     46 H14          7.2880     4.4890    -0.4160 ha         1 2LL       0.113000
     47 H15          5.3560     5.8050     0.4530 ha         1 2LL       0.113000
     48 H16          3.1620     4.6980     0.8300 ha         1 2LL       0.110500
     49 H17         -1.4370    -2.3680    -0.7600 ha         1 2LL       0.121000
     50 H18         -3.8670    -2.2570    -0.3180 ha         1 2LL       0.114000
     51 H19          0.7710    -1.7700    -1.7690 h1         1 2LL       0.068200
     52 H20          2.0560    -0.5970    -1.4510 h1         1 2LL       0.068200
     53 H21          1.8470    -1.1090     1.0270 h1         1 2LL       0.045200
     54 H22          0.6150    -2.3050     0.6400 h1         1 2LL       0.045200
     55 H24          2.9830    -3.1310     2.1830 h1         1 2LL       0.042450
     56 H25          1.7610    -4.2300     1.5300 h1         1 2LL       0.042450
     57 H26          3.9320    -5.4060     2.0450 h1         1 2LL       0.053200
     58 H27          3.5030    -5.5340     0.3220 h1         1 2LL       0.053200
     59 H28          5.9730    -3.0010    -0.6680 h1         1 2LL       0.053200
     60 H29          4.7230    -4.1020    -1.2970 h1         1 2LL       0.053200
     61 H30          3.8560    -1.7830    -1.2620 h1         1 2LL       0.042450
     62 H31          4.2760    -1.5970     0.4460 h1         1 2LL       0.042450
@<TRIPOS>BOND
     1     1     2 1   
     2     1    33 1   
     3     1    34 1   
     4     1    35 1   
     5     2     3 1   
     6     2     7 2   
     7     3     4 1   
     8     4     5 2   
     9     5     6 1   
    10     5     7 1   
    11     6    36 1   
    12     6    37 1   
    13     6    38 1   
    14     7     8 1   
    15     8     9 ar  
    16     8    24 ar  
    17     9    10 ar  
    18     9    39 1   
    19    10    11 1   
    20    10    22 ar  
    21    11    12 2   
    22    12    13 1   
    23    12    21 1   
    24    13    14 1   
    25    13    40 1   
    26    13    41 1   
    27    14    15 1   
    28    14    42 1   
    29    14    43 1   
    30    15    16 ar  
    31    15    20 ar  
    32    16    17 ar  
    33    16    44 1   
    34    17    18 ar  
    35    17    45 1   
    36    18    19 ar  
    37    18    46 1   
    38    19    20 ar  
    39    19    47 1   
    40    20    48 1   
    41    21    22 1   
    42    21    25 1   
    43    22    23 ar  
    44    23    24 ar  
    45    23    49 1   
    46    24    50 1   
    47    25    26 1   
    48    25    51 1   
    49    25    52 1   
    50    26    27 1   
    51    26    53 1   
    52    26    54 1   
    53    27    28 1   
    54    27    32 1   
    55    28    29 1   
    56    28    55 1   
    57    28    56 1   
    58    29    30 1   
    59    29    57 1   
    60    29    58 1   
    61    30    31 1   
    62    31    32 1   
    63    31    59 1   
    64    31    60 1   
    65    32    61 1   
    66    32    62 1   
@<TRIPOS>SUBSTRUCTURE
     1 2LL         1 TEMP              0 ****  ****    0 ROOT
