@<TRIPOS>MOLECULE
2LL
   62    66     1     0     0
SMALL
bcc


@<TRIPOS>ATOM
      1 C25         -5.6490    -1.9210     1.9570 c3         1 2LL      -0.137400
      2 C24         -6.0070    -0.7930     1.0670 cc         1 2LL       0.305000
      3 O1          -7.2820    -0.3980     1.0530 os         1 2LL      -0.119100
      4 N3          -7.4350     0.6520     0.1940 nc         1 2LL      -0.368300
      5 C1          -6.2580     0.8930    -0.3040 cd         1 2LL       0.357600
      6 C           -6.0590     1.9820    -1.2970 c3         1 2LL      -0.134400
      7 C2          -5.2860    -0.0130     0.2170 cd         1 2LL      -0.302600
      8 C3          -3.8580    -0.0960    -0.1050 ca         1 2LL      -0.026000
      9 C8          -3.0650     1.0460    -0.0860 ca         1 2LL      -0.056000
     10 C7          -1.7110     0.9230    -0.3830 ca         1 2LL       0.071400
     11 N           -0.7240     1.8750    -0.4200 nc         1 2LL      -0.575100
     12 C9           0.3700     1.2300    -0.7290 cd         1 2LL       0.422800
     13 C10          1.7120     1.8720    -0.8110 c3         1 2LL      -0.091700
     14 C11          2.2350     2.2650     0.5810 c3         1 2LL      -0.028100
     15 C12          3.6270     2.8240     0.5020 ca         1 2LL      -0.085300
     16 C17          4.7330     1.9760     0.5170 ca         1 2LL      -0.124500
     17 C16          6.0200     2.4820     0.3990 ca         1 2LL      -0.126500
     18 C15          6.2210     3.8500     0.2610 ca         1 2LL      -0.126000
     19 C14          5.1270     4.7040     0.2450 ca         1 2LL      -0.126500
     20 C13          3.8410     4.1930     0.3640 ca         1 2LL      -0.124500
     21 N1           0.1640    -0.1070    -0.9170 na         1 2LL      -0.150300
     22 C6          -1.1710    -0.3350    -0.6880 ca         1 2LL      -0.081200
     23 C5          -1.9450    -1.4870    -0.7190 ca         1 2LL      -0.131000
     24 C4          -3.2890    -1.3430    -0.4300 ca         1 2LL      -0.107000
     25 C18          1.1460    -1.1370    -1.1760 c3         1 2LL       0.047300
     26 C19          1.7380    -1.6710     0.1260 c3         1 2LL       0.143800
     27 N2           2.6480    -2.7680    -0.1030 n3         1 2LL      -0.719600
     28 C23          2.8670    -3.5430     1.1070 c6         1 2LL       0.125800
     29 C22          3.7760    -4.7200     0.8120 c6         1 2LL       0.129400
     30 O            5.0110    -4.2980     0.2790 os         1 2LL      -0.399600
     31 C21          4.8160    -3.5420    -0.8950 c6         1 2LL       0.129400
     32 C20          3.9260    -2.3380    -0.6450 c6         1 2LL       0.125800
     33 H1          -6.0960    -1.8000     2.9430 hc         1 2LL       0.062700
     34 H2          -5.9920    -2.8740     1.5510 hc         1 2LL       0.062700
     35 H3          -4.5690    -1.9770     2.0760 hc         1 2LL       0.062700
     36 H4          -5.5200     2.8210    -0.8580 hc         1 2LL       0.057700
     37 H5          -5.4730     1.6280    -2.1450 hc         1 2LL       0.057700
     38 H6          -7.0150     2.3510    -1.6640 hc         1 2LL       0.057700
     39 H7          -3.4780     2.0120     0.1790 ha         1 2LL       0.150000
     40 H8           2.4310     1.2160    -1.3030 hc         1 2LL       0.063700
     41 H9           1.6350     2.7670    -1.4330 hc         1 2LL       0.063700
     42 H10          1.5550     2.9970     1.0200 hc         1 2LL       0.058700
     43 H11          2.2190     1.3900     1.2350 hc         1 2LL       0.058700
     44 H12          4.5880     0.9070     0.6270 ha         1 2LL       0.128500
     45 H13          6.8660     1.8070     0.4170 ha         1 2LL       0.131000
     46 H14          7.2240     4.2460     0.1700 ha         1 2LL       0.131000
     47 H15          5.2740     5.7720     0.1440 ha         1 2LL       0.131000
     48 H16          2.9930     4.8680     0.3530 ha         1 2LL       0.128500
     49 H17         -1.5310    -2.4570    -0.9630 ha         1 2LL       0.139000
     50 H18         -3.9290    -2.2160    -0.4680 ha         1 2LL       0.132000
     51 H19          0.6570    -1.9480    -1.7170 h1         1 2LL       0.068200
     52 H20          1.9100    -0.7380    -1.8410 h1         1 2LL       0.068200
     53 H21          2.2140    -0.8450     0.6830 h1         1 2LL       0.045200
     54 H22          0.9150    -2.0290     0.7510 h1         1 2LL       0.045200
     55 H24          3.3100    -2.9310     1.9100 h1         1 2LL       0.042450
     56 H25          1.9090    -3.9190     1.4750 h1         1 2LL       0.042450
     57 H26          3.9860    -5.2700     1.7310 h1         1 2LL       0.053200
     58 H27          3.2700    -5.4040     0.1150 h1         1 2LL       0.053200
     59 H28          5.7970    -3.2140    -1.2410 h1         1 2LL       0.053200
     60 H29          4.3680    -4.1630    -1.6830 h1         1 2LL       0.053200
     61 H30          3.7820    -1.8210    -1.5960 h1         1 2LL       0.042450
     62 H31          4.4360    -1.6350     0.0370 h1         1 2LL       0.042450
@<TRIPOS>BOND
     1     1     2 1   
     2     1    33 1   
     3     1    34 1   
     4     1    35 1   
     5     2     3 1   
     6     2     7 2   
     7     3     4 1   
     8     4     5 2   
     9     5     6 1   
    10     5     7 1   
    11     6    36 1   
    12     6    37 1   
    13     6    38 1   
    14     7     8 1   
    15     8     9 ar  
    16     8    24 ar  
    17     9    10 ar  
    18     9    39 1   
    19    10    11 1   
    20    10    22 ar  
    21    11    12 2   
    22    12    13 1   
    23    12    21 1   
    24    13    14 1   
    25    13    40 1   
    26    13    41 1   
    27    14    15 1   
    28    14    42 1   
    29    14    43 1   
    30    15    16 ar  
    31    15    20 ar  
    32    16    17 ar  
    33    16    44 1   
    34    17    18 ar  
    35    17    45 1   
    36    18    19 ar  
    37    18    46 1   
    38    19    20 ar  
    39    19    47 1   
    40    20    48 1   
    41    21    22 1   
    42    21    25 1   
    43    22    23 ar  
    44    23    24 ar  
    45    23    49 1   
    46    24    50 1   
    47    25    26 1   
    48    25    51 1   
    49    25    52 1   
    50    26    27 1   
    51    26    53 1   
    52    26    54 1   
    53    27    28 1   
    54    27    32 1   
    55    28    29 1   
    56    28    55 1   
    57    28    56 1   
    58    29    30 1   
    59    29    57 1   
    60    29    58 1   
    61    30    31 1   
    62    31    32 1   
    63    31    59 1   
    64    31    60 1   
    65    32    61 1   
    66    32    62 1   
@<TRIPOS>SUBSTRUCTURE
     1 2LL         1 TEMP              0 ****  ****    0 ROOT
