@<TRIPOS>MOLECULE
2LN
   70    73     1     0     0
SMALL
No Charge or Current Charge


@<TRIPOS>ATOM
      1 O4          -3.2870     4.0690    -0.1690 o          1 2LN      -0.594100
      2 C2          -2.2060     4.6460    -0.1740 c          1 2LN       0.600100
      3 C1          -1.9400     5.8020    -1.1640 c3         1 2LN      -0.153400
      4 C           -3.0850     6.1210    -2.1540 c3         1 2LN      -0.077100
      5 N           -1.1900     4.2740     0.7430 n          1 2LN      -0.406800
      6 C7          -1.3910     3.1370     1.6600 c3         1 2LN       0.142300
      7 C6          -0.9160     1.8220     1.0590 ca         1 2LN      -0.105300
      8 C8          -1.8260     0.7570     0.9210 ca         1 2LN      -0.101000
      9 C9          -1.4260    -0.4990     0.4060 cp         1 2LN       0.003000
     10 C19         -2.4090    -1.6210     0.2660 cp         1 2LN      -0.039000
     11 C24         -2.0290    -2.9620     0.5240 ca         1 2LN      -0.161000
     12 C23         -2.9520    -4.0250     0.3920 ca         1 2LN       0.108100
     13 O2          -2.5930    -5.3400     0.6440 os         1 2LN      -0.322100
     14 C25         -1.2640    -5.7160     1.0460 c3         1 2LN       0.146900
     15 C22         -4.2830    -3.7520    -0.0050 ca         1 2LN       0.116100
     16 O3          -5.1700    -4.8090    -0.1280 os         1 2LN      -0.321100
     17 C26         -6.5400    -4.6260    -0.5250 c3         1 2LN       0.144900
     18 C21         -4.6720    -2.4200    -0.2640 ca         1 2LN      -0.173000
     19 C20         -3.7450    -1.3730    -0.1280 ca         1 2LN      -0.091000
     20 C10         -0.0710    -0.6660     0.0350 ca         1 2LN      -0.182000
     21 C11          0.8570     0.3910     0.1620 ca         1 2LN       0.134100
     22 C5           0.4290     1.6420     0.6630 ca         1 2LN       0.072100
     23 O            1.3530     2.6660     0.7770 os         1 2LN      -0.342100
     24 C4           1.2050     3.8880     0.0230 c3         1 2LN       0.135600
     25 C3           0.1870     4.8240     0.7120 c3         1 2LN       0.066000
     26 O1           2.1840     0.2460    -0.2060 os         1 2LN      -0.333100
     27 C12          2.7180    -0.9920    -0.7070 c3         1 2LN       0.165600
     28 C13          4.2310    -0.8130    -1.0020 c6         1 2LN      -0.065700
     29 C18          5.0300    -0.4320     0.2760 c6         1 2LN       0.170800
     30 N1           6.4860    -0.2690    -0.0050 n3         1 2LN      -0.717600
     31 C17          7.2360     0.2010     1.1800 c3         1 2LN       0.155100
     32 C16          7.0730    -1.5040    -0.5920 c6         1 2LN       0.164800
     33 C15          6.3460    -1.9120    -1.8950 c6         1 2LN      -0.073400
     34 C14          4.8300    -2.0890    -1.6500 c6         1 2LN      -0.074400
     35 H1          -1.6650     6.6880    -0.5810 hc         1 2LN       0.054700
     36 H2          -1.0060     5.5900    -1.6960 hc         1 2LN       0.054700
     37 H3          -2.8000     6.9510    -2.8120 hc         1 2LN       0.042367
     38 H4          -3.3110     5.2500    -2.7800 hc         1 2LN       0.042367
     39 H5          -3.9960     6.4090    -1.6150 hc         1 2LN       0.042367
     40 H6          -0.8320     3.3210     2.5870 h1         1 2LN       0.070700
     41 H7          -2.4490     3.0660     1.9430 h1         1 2LN       0.070700
     42 H8          -2.8570     0.8980     1.2340 ha         1 2LN       0.129000
     43 H9          -1.0100    -3.1560     0.8420 ha         1 2LN       0.119000
     44 H10         -0.5290    -5.4310     0.2830 h1         1 2LN       0.038700
     45 H11         -0.9930    -5.2360     1.9950 h1         1 2LN       0.038700
     46 H12         -1.2030    -6.8030     1.1860 h1         1 2LN       0.038700
     47 H13         -7.0590    -5.5920    -0.5570 h1         1 2LN       0.040033
     48 H14         -7.0690    -3.9800     0.1870 h1         1 2LN       0.040033
     49 H15         -6.6000    -4.1750    -1.5240 h1         1 2LN       0.040033
     50 H16         -5.6840    -2.1760    -0.5730 ha         1 2LN       0.121000
     51 H17         -4.0650    -0.3570    -0.3470 ha         1 2LN       0.125000
     52 H18          0.2390    -1.6230    -0.3710 ha         1 2LN       0.120000
     53 H19          2.1690     4.4090    -0.0240 h1         1 2LN       0.058200
     54 H20          0.8880     3.6780    -1.0070 h1         1 2LN       0.058200
     55 H21          0.2130     5.8020     0.2190 h1         1 2LN       0.059200
     56 H22          0.5190     4.9950     1.7440 h1         1 2LN       0.059200
     57 H23          2.5890    -1.7960     0.0300 h1         1 2LN       0.034200
     58 H24          2.2070    -1.2810    -1.6340 h1         1 2LN       0.034200
     59 H25          4.3120     0.0140    -1.7210 hc         1 2LN       0.074700
     60 H26          4.6230     0.5050     0.6850 h1         1 2LN       0.040200
     61 H27          4.8760    -1.2080     1.0410 h1         1 2LN       0.040200
     62 H29          7.1910    -0.5390     1.9910 h1         1 2LN       0.030033
     63 H30          8.2910     0.3720     0.9280 h1         1 2LN       0.030033
     64 H31          6.8190     1.1460     1.5530 h1         1 2LN       0.030033
     65 H32          8.1390    -1.3480    -0.8180 h1         1 2LN       0.029200
     66 H33          7.0130    -2.3330     0.1280 h1         1 2LN       0.029200
     67 H34          6.5120    -1.1450    -2.6640 hc         1 2LN       0.047700
     68 H35          6.7750    -2.8450    -2.2840 hc         1 2LN       0.047700
     69 H36          4.6620    -2.9560    -0.9960 hc         1 2LN       0.039200
     70 H37          4.3220    -2.3080    -2.6000 hc         1 2LN       0.039200
@<TRIPOS>BOND
     1     1     2 2   
     2     2     3 1   
     3     2     5 1   
     4     3     4 1   
     5     3    35 1   
     6     3    36 1   
     7     4    37 1   
     8     4    38 1   
     9     4    39 1   
    10     5     6 1   
    11     5    25 1   
    12     6     7 1   
    13     6    40 1   
    14     6    41 1   
    15     7     8 ar  
    16     7    22 ar  
    17     8     9 ar  
    18     8    42 1   
    19     9    10 1   
    20     9    20 ar  
    21    10    11 ar  
    22    10    19 ar  
    23    11    12 ar  
    24    11    43 1   
    25    12    13 1   
    26    12    15 ar  
    27    13    14 1   
    28    14    44 1   
    29    14    45 1   
    30    14    46 1   
    31    15    16 1   
    32    15    18 ar  
    33    16    17 1   
    34    17    47 1   
    35    17    48 1   
    36    17    49 1   
    37    18    19 ar  
    38    18    50 1   
    39    19    51 1   
    40    20    21 ar  
    41    20    52 1   
    42    21    22 ar  
    43    21    26 1   
    44    22    23 1   
    45    23    24 1   
    46    24    25 1   
    47    24    53 1   
    48    24    54 1   
    49    25    55 1   
    50    25    56 1   
    51    26    27 1   
    52    27    28 1   
    53    27    57 1   
    54    27    58 1   
    55    28    29 1   
    56    28    34 1   
    57    28    59 1   
    58    29    30 1   
    59    29    60 1   
    60    29    61 1   
    61    30    31 1   
    62    30    32 1   
    63    31    62 1   
    64    31    63 1   
    65    31    64 1   
    66    32    33 1   
    67    32    65 1   
    68    32    66 1   
    69    33    34 1   
    70    33    67 1   
    71    33    68 1   
    72    34    69 1   
    73    34    70 1   
@<TRIPOS>SUBSTRUCTURE
     1 2LN         1 TEMP              0 ****  ****    0 ROOT
