@<TRIPOS>MOLECULE
2LN
   70    73     1     0     0
SMALL
abcg2


@<TRIPOS>ATOM
      1 O4          -3.1340     3.7940    -0.0380 o          1 2LN      -0.594100
      2 C2          -2.0840     4.4150    -0.1010 c          1 2LN       0.600100
      3 C1          -1.8550     5.4660    -1.1710 c3         1 2LN      -0.153400
      4 C           -3.0680     5.6810    -2.0590 c3         1 2LN      -0.077100
      5 N           -1.0880     4.2050     0.7980 n          1 2LN      -0.406800
      6 C7          -1.2340     3.1100     1.7420 c3         1 2LN       0.142300
      7 C6          -0.8350     1.7890     1.1410 ca         1 2LN      -0.105300
      8 C8          -1.7550     0.7580     0.9960 ca         1 2LN      -0.101000
      9 C9          -1.3800    -0.4670     0.4560 cp         1 2LN       0.003000
     10 C19         -2.3700    -1.5470     0.2790 cp         1 2LN      -0.039000
     11 C24         -2.0080    -2.8860     0.4810 ca         1 2LN      -0.161000
     12 C23         -2.9210    -3.9100     0.3060 ca         1 2LN       0.108100
     13 O2          -2.6570    -5.2160     0.4930 os         1 2LN      -0.322100
     14 C25         -1.3510    -5.5850     0.8850 c3         1 2LN       0.146900
     15 C22         -4.2440    -3.6090    -0.0830 ca         1 2LN       0.116100
     16 O3          -5.0630    -4.6660    -0.2340 os         1 2LN      -0.321100
     17 C26         -6.4030    -4.4180    -0.6070 c3         1 2LN       0.144900
     18 C21         -4.6020    -2.2870    -0.2800 ca         1 2LN      -0.173000
     19 C20         -3.6720    -1.2650    -0.0990 ca         1 2LN      -0.091000
     20 C10         -0.0530    -0.6520     0.0590 ca         1 2LN      -0.182000
     21 C11          0.8760     0.3740     0.1810 ca         1 2LN       0.134100
     22 C5           0.4780     1.6030     0.7270 ca         1 2LN       0.072100
     23 O            1.4130     2.5820     0.8560 os         1 2LN      -0.342100
     24 C4           1.2290     3.7470     0.0590 c3         1 2LN       0.135600
     25 C3           0.2550     4.7370     0.6770 c3         1 2LN       0.066000
     26 O1           2.1590     0.2940    -0.2060 os         1 2LN      -0.333100
     27 C12          2.6680    -0.9450    -0.6700 c3         1 2LN       0.165600
     28 C13          4.1410    -0.7690    -0.9840 c6         1 2LN      -0.065700
     29 C18          4.9390    -0.3300     0.2410 c6         1 2LN       0.170800
     30 N1           6.3430    -0.1700    -0.0790 n3         1 2LN      -0.717600
     31 C17          7.0810     0.3620     1.0440 c3         1 2LN       0.155100
     32 C16          6.9280    -1.4090    -0.5560 c6         1 2LN       0.164800
     33 C15          6.2100    -1.9120    -1.7990 c6         1 2LN      -0.073400
     34 C14          4.7190    -2.0710    -1.5330 c6         1 2LN      -0.074400
     35 H1          -1.5650     6.4100    -0.7010 hc         1 2LN       0.054700
     36 H2          -0.9970     5.1700    -1.7820 hc         1 2LN       0.054700
     37 H3          -2.8390     6.4270    -2.8190 hc         1 2LN       0.042367
     38 H4          -3.3630     4.7660    -2.5710 hc         1 2LN       0.042367
     39 H5          -3.9250     6.0400    -1.4910 hc         1 2LN       0.042367
     40 H6          -0.6090     3.3370     2.6090 h1         1 2LN       0.070700
     41 H7          -2.2620     3.0640     2.0960 h1         1 2LN       0.070700
     42 H8          -2.7730     0.9180     1.3270 ha         1 2LN       0.129000
     43 H9          -1.0000    -3.1130     0.8040 ha         1 2LN       0.119000
     44 H10         -0.6050    -5.3080     0.1350 h1         1 2LN       0.038700
     45 H11         -1.0700    -5.1370     1.8420 h1         1 2LN       0.038700
     46 H12         -1.3540    -6.6660     0.9920 h1         1 2LN       0.038700
     47 H13         -6.8940    -5.3860    -0.6590 h1         1 2LN       0.040033
     48 H14         -6.9220    -3.7960     0.1270 h1         1 2LN       0.040033
     49 H15         -6.4710    -3.9360    -1.5870 h1         1 2LN       0.040033
     50 H16         -5.6050    -2.0240    -0.5870 ha         1 2LN       0.121000
     51 H17         -3.9790    -0.2440    -0.2860 ha         1 2LN       0.125000
     52 H18          0.2350    -1.5950    -0.3880 ha         1 2LN       0.120000
     53 H19          2.2080     4.2200    -0.0230 h1         1 2LN       0.058200
     54 H20          0.9030     3.4710    -0.9500 h1         1 2LN       0.058200
     55 H21          0.2580     5.6440     0.0760 h1         1 2LN       0.059200
     56 H22          0.6060     5.0210     1.6720 h1         1 2LN       0.059200
     57 H23          2.5290    -1.7220     0.0930 h1         1 2LN       0.034200
     58 H24          2.1340    -1.2660    -1.5720 h1         1 2LN       0.034200
     59 H25          4.2420     0.0030    -1.7560 hc         1 2LN       0.074700
     60 H26          4.5610     0.6250     0.6150 h1         1 2LN       0.040200
     61 H27          4.7890    -1.0730     1.0500 h1         1 2LN       0.040200
     62 H29          7.0920    -0.3100     1.9170 h1         1 2LN       0.030033
     63 H30          8.1170     0.5480     0.7570 h1         1 2LN       0.030033
     64 H31          6.6470     1.3120     1.3610 h1         1 2LN       0.030033
     65 H32          7.9830    -1.2340    -0.7790 h1         1 2LN       0.029200
     66 H33          6.8950    -2.1930     0.2240 h1         1 2LN       0.029200
     67 H34          6.3640    -1.2020    -2.6170 hc         1 2LN       0.047700
     68 H35          6.6480    -2.8620    -2.1110 hc         1 2LN       0.047700
     69 H36          4.5650    -2.8730    -0.8000 hc         1 2LN       0.039200
     70 H37          4.1940    -2.3700    -2.4440 hc         1 2LN       0.039200
@<TRIPOS>BOND
     1     1     2 2   
     2     2     3 1   
     3     2     5 1   
     4     3     4 1   
     5     3    35 1   
     6     3    36 1   
     7     4    37 1   
     8     4    38 1   
     9     4    39 1   
    10     5     6 1   
    11     5    25 1   
    12     6     7 1   
    13     6    40 1   
    14     6    41 1   
    15     7     8 ar  
    16     7    22 ar  
    17     8     9 ar  
    18     8    42 1   
    19     9    10 1   
    20     9    20 ar  
    21    10    11 ar  
    22    10    19 ar  
    23    11    12 ar  
    24    11    43 1   
    25    12    13 1   
    26    12    15 ar  
    27    13    14 1   
    28    14    44 1   
    29    14    45 1   
    30    14    46 1   
    31    15    16 1   
    32    15    18 ar  
    33    16    17 1   
    34    17    47 1   
    35    17    48 1   
    36    17    49 1   
    37    18    19 ar  
    38    18    50 1   
    39    19    51 1   
    40    20    21 ar  
    41    20    52 1   
    42    21    22 ar  
    43    21    26 1   
    44    22    23 1   
    45    23    24 1   
    46    24    25 1   
    47    24    53 1   
    48    24    54 1   
    49    25    55 1   
    50    25    56 1   
    51    26    27 1   
    52    27    28 1   
    53    27    57 1   
    54    27    58 1   
    55    28    29 1   
    56    28    34 1   
    57    28    59 1   
    58    29    30 1   
    59    29    60 1   
    60    29    61 1   
    61    30    31 1   
    62    30    32 1   
    63    31    62 1   
    64    31    63 1   
    65    31    64 1   
    66    32    33 1   
    67    32    65 1   
    68    32    66 1   
    69    33    34 1   
    70    33    67 1   
    71    33    68 1   
    72    34    69 1   
    73    34    70 1   
@<TRIPOS>SUBSTRUCTURE
     1 2LN         1 TEMP              0 ****  ****    0 ROOT
