@<TRIPOS>MOLECULE
2LO
   69    73     1     0     0
SMALL
bcc


@<TRIPOS>ATOM
      1 CL           6.9780    -1.1490    -0.9260 cl         1 2LO      -0.095400
      2 C16          6.0610     0.1910    -0.3280 ca         1 2LO      -0.011600
      3 C15          6.7160     1.1750     0.4200 ca         1 2LO       0.151100
      4 O            8.0290     1.0080     0.6290 os         1 2LO      -0.299900
      5 C18          8.7220     1.9950     1.3710 c3         1 2LO       0.123700
      6 C14          5.9620     2.2470     0.8860 ca         1 2LO      -0.209000
      7 C13          4.6030     2.3250     0.6100 ca         1 2LO      -0.079000
      8 C17          4.7100     0.2740    -0.6000 ca         1 2LO      -0.088000
      9 C12          3.9550     1.3490    -0.1340 ca         1 2LO      -0.115300
     10 C11          2.4770     1.4090    -0.3950 c3         1 2LO      -0.024100
     11 C10          1.6900     0.6190     0.6640 c3         1 2LO      -0.094700
     12 C9           0.2280     0.6120     0.3830 cc         1 2LO       0.414800
     13 N1          -0.3440    -0.2560    -0.5030 na         1 2LO      -0.132300
     14 C19          0.3080    -1.3630    -1.1640 c3         1 2LO       0.053300
     15 C20          0.4510    -2.5950    -0.2660 c3         1 2LO       0.171500
     16 N2          -0.8480    -3.0390     0.2040 n3         1 2LO      -0.732600
     17 C25         -1.6110    -3.8430    -0.7290 c6         1 2LO       0.138800
     18 C24         -3.0140    -4.0510    -0.1890 c6         1 2LO       0.128400
     19 O1          -2.9930    -4.6630     1.0820 os         1 2LO      -0.401600
     20 C23         -2.2370    -3.8970     1.9950 c6         1 2LO       0.128400
     21 C22         -0.8180    -3.6790     1.5050 c6         1 2LO       0.138800
     22 C21          1.3020    -3.6510    -0.9750 c3         1 2LO      -0.123100
     23 C6          -1.6760     0.0600    -0.5600 ca         1 2LO      -0.055200
     24 C5          -2.7390    -0.4500    -1.2940 ca         1 2LO      -0.126000
     25 C4          -3.9700     0.1530    -1.1220 ca         1 2LO      -0.106000
     26 N           -0.6260     1.4620     0.8880 nd         1 2LO      -0.575100
     27 C7          -1.8330     1.1450     0.3140 ca         1 2LO       0.064400
     28 C8          -3.0800     1.7450     0.4710 ca         1 2LO      -0.060000
     29 C3          -4.1570     1.2430    -0.2490 ca         1 2LO      -0.028000
     30 C2          -5.4860     1.8470    -0.1120 cc         1 2LO      -0.301600
     31 C26         -6.1560     2.1710     1.0260 cd         1 2LO       0.307000
     32 C27         -5.8410     2.0090     2.4640 c3         1 2LO      -0.138400
     33 O2          -7.3240     2.7330     0.7060 os         1 2LO      -0.120100
     34 N3          -7.4540     2.7950    -0.6520 nd         1 2LO      -0.369300
     35 C1          -6.3730     2.2690    -1.1480 cc         1 2LO       0.354600
     36 C           -6.1730     2.1790    -2.6190 c3         1 2LO      -0.133400
     37 H1           9.7580     1.6710     1.4180 h1         1 2LO       0.044700
     38 H2           8.6790     2.9730     0.8850 h1         1 2LO       0.044700
     39 H3           8.3330     2.0870     2.3880 h1         1 2LO       0.044700
     40 H4           6.4230     3.0350     1.4650 ha         1 2LO       0.140000
     41 H5           4.0440     3.1740     0.9850 ha         1 2LO       0.138000
     42 H6           4.2400    -0.5060    -1.1880 ha         1 2LO       0.140000
     43 H7           2.1370     2.4460    -0.3900 hc         1 2LO       0.056700
     44 H8           2.2600     1.0140    -1.3900 hc         1 2LO       0.056700
     45 H9           2.0780    -0.4010     0.7250 hc         1 2LO       0.065200
     46 H10          1.8460     1.0700     1.6440 hc         1 2LO       0.065200
     47 H11         -0.2510    -1.6010    -2.0710 h1         1 2LO       0.060200
     48 H12          1.2950    -1.0410    -1.5000 h1         1 2LO       0.060200
     49 H13          1.0000    -2.2770     0.6250 h1         1 2LO       0.061700
     50 H15         -1.6840    -3.3430    -1.6970 h1         1 2LO       0.038950
     51 H16         -1.1490    -4.8260    -0.9150 h1         1 2LO       0.038950
     52 H17         -3.5310    -3.0820    -0.1390 h1         1 2LO       0.053700
     53 H18         -3.5800    -4.7040    -0.8550 h1         1 2LO       0.053700
     54 H19         -2.7120    -2.9200     2.1610 h1         1 2LO       0.053700
     55 H20         -2.2290    -4.4350     2.9450 h1         1 2LO       0.053700
     56 H21         -0.2800    -4.6420     1.4920 h1         1 2LO       0.038950
     57 H22         -0.3010    -3.0310     2.2170 h1         1 2LO       0.038950
     58 H23          2.3090    -3.2710    -1.1500 hc         1 2LO       0.043700
     59 H24          1.3900    -4.5530    -0.3700 hc         1 2LO       0.043700
     60 H25          0.8830    -3.9310    -1.9420 hc         1 2LO       0.043700
     61 H26         -2.6280    -1.2770    -1.9810 ha         1 2LO       0.133000
     62 H27         -4.8180    -0.2410    -1.6660 ha         1 2LO       0.131000
     63 H28         -3.1950     2.6020     1.1250 ha         1 2LO       0.146000
     64 H29         -5.5210     2.9520     2.9100 hc         1 2LO       0.064367
     65 H30         -6.7090     1.6560     3.0200 hc         1 2LO       0.064367
     66 H31         -5.0350     1.2890     2.5900 hc         1 2LO       0.064367
     67 H32         -6.2740     1.1500    -2.9660 hc         1 2LO       0.055700
     68 H33         -6.9050     2.7860    -3.1490 hc         1 2LO       0.055700
     69 H34         -5.1740     2.5180    -2.8940 hc         1 2LO       0.055700
@<TRIPOS>BOND
     1     1     2 1   
     2     2     3 ar  
     3     2     8 ar  
     4     3     4 1   
     5     3     6 ar  
     6     4     5 1   
     7     5    37 1   
     8     5    38 1   
     9     5    39 1   
    10     6     7 ar  
    11     6    40 1   
    12     7     9 ar  
    13     7    41 1   
    14     8     9 ar  
    15     8    42 1   
    16     9    10 1   
    17    10    11 1   
    18    10    43 1   
    19    10    44 1   
    20    11    12 1   
    21    11    45 1   
    22    11    46 1   
    23    12    13 1   
    24    12    26 2   
    25    13    14 1   
    26    13    23 1   
    27    14    15 1   
    28    14    47 1   
    29    14    48 1   
    30    15    16 1   
    31    15    22 1   
    32    15    49 1   
    33    16    17 1   
    34    16    21 1   
    35    17    18 1   
    36    17    50 1   
    37    17    51 1   
    38    18    19 1   
    39    18    52 1   
    40    18    53 1   
    41    19    20 1   
    42    20    21 1   
    43    20    54 1   
    44    20    55 1   
    45    21    56 1   
    46    21    57 1   
    47    22    58 1   
    48    22    59 1   
    49    22    60 1   
    50    23    24 ar  
    51    23    27 ar  
    52    24    25 ar  
    53    24    61 1   
    54    25    29 ar  
    55    25    62 1   
    56    26    27 1   
    57    27    28 ar  
    58    28    29 ar  
    59    28    63 1   
    60    29    30 1   
    61    30    31 2   
    62    30    35 1   
    63    31    32 1   
    64    31    33 1   
    65    32    64 1   
    66    32    65 1   
    67    32    66 1   
    68    33    34 1   
    69    34    35 2   
    70    35    36 1   
    71    36    67 1   
    72    36    68 1   
    73    36    69 1   
@<TRIPOS>SUBSTRUCTURE
     1 2LO         1 TEMP              0 ****  ****    0 ROOT
