@<TRIPOS>MOLECULE
2LO
   69    73     1     0     0
SMALL
No Charge or Current Charge


@<TRIPOS>ATOM
      1 Cl           6.5700    -2.0520     0.2300 cl         1 2LO      -0.187000
      2 C16          5.7580    -0.4980     0.4320 ca         1 2LO       0.080000
      3 C15          6.4110     0.5830     1.0640 ca         1 2LO       0.151100
      4 O            7.7040     0.4020     1.5240 os         1 2LO      -0.323100
      5 C18          8.4420     1.4480     2.1800 c3         1 2LO       0.146900
      6 C14          5.7270     1.8110     1.2100 ca         1 2LO      -0.191000
      7 C13          4.4140     1.9520     0.7300 ca         1 2LO      -0.061000
      8 C17          4.4460    -0.3510    -0.0470 ca         1 2LO      -0.070000
      9 C12          3.7670     0.8730     0.0980 ca         1 2LO      -0.115300
     10 C11          2.3410     1.0230    -0.4130 c3         1 2LO      -0.024100
     11 C10          1.3070     0.5450     0.6290 c3         1 2LO      -0.094700
     12 C9          -0.1260     0.6370     0.1660 cc         1 2LO       0.414800
     13 N1          -0.7220    -0.1150    -0.8620 na         1 2LO      -0.161600
     14 C19         -0.1430    -1.1620    -1.7450 c3         1 2LO       0.082600
     15 C20          0.6150    -2.3170    -1.0280 c3         1 2LO       0.171500
     16 N2          -0.0740    -2.7990     0.2060 n3         1 2LO      -0.732600
     17 C25         -1.4360    -3.3910    -0.0030 c6         1 2LO       0.138800
     18 C24         -2.1200    -3.7320     1.3530 c6         1 2LO       0.151600
     19 O1          -1.2700    -4.5960     2.1460 os         1 2LO      -0.448000
     20 C23          0.0250    -4.0080     2.4180 c6         1 2LO       0.151600
     21 C22          0.7610    -3.6740     1.0870 c6         1 2LO       0.138800
     22 C21          0.9590    -3.4420    -2.0330 c3         1 2LO      -0.123100
     23 C6          -2.0240     0.2990    -0.9480 ca         1 2LO      -0.055200
     24 C5          -3.0720    -0.0940    -1.7930 ca         1 2LO      -0.108000
     25 C4          -4.3220     0.5360    -1.6300 ca         1 2LO      -0.088000
     26 N           -1.0120     1.4970     0.7090 nd         1 2LO      -0.575100
     27 C7          -2.1880     1.2630     0.0040 ca         1 2LO       0.064400
     28 C8          -3.4230     1.9000     0.1820 ca         1 2LO      -0.042000
     29 C3          -4.5210     1.5360    -0.6400 ca         1 2LO      -0.028000
     30 C2          -5.8340     2.1910    -0.4830 cc         1 2LO      -0.171000
     31 C26         -6.3660     2.5230     0.7330 cd         1 2LO       0.197300
     32 C27         -5.8600     2.3720     2.1440 c3         1 2LO      -0.138400
     33 O2          -7.6480     2.9780     0.5670 os         1 2LO      -0.075700
     34 N3          -7.9930     2.8910    -0.8230 nd         1 2LO      -0.369300
     35 C1          -6.9040     2.4030    -1.3900 cc         1 2LO       0.289300
     36 C           -6.8240     2.1700    -2.8730 c3         1 2LO      -0.133400
     37 H1           9.4400     1.0910     2.4600 h1         1 2LO       0.044700
     38 H2           8.5650     2.3140     1.5170 h1         1 2LO       0.044700
     39 H3           7.9290     1.7730     3.0950 h1         1 2LO       0.044700
     40 H4           6.1950     2.6650     1.6930 ha         1 2LO       0.122000
     41 H5           3.8960     2.9020     0.8510 ha         1 2LO       0.120000
     42 H6           3.9570    -1.1940    -0.5310 ha         1 2LO       0.122000
     43 H7           2.1330     2.0700    -0.6690 hc         1 2LO       0.056700
     44 H8           2.2210     0.4560    -1.3440 hc         1 2LO       0.056700
     45 H9           1.5320    -0.4800     0.9400 hc         1 2LO       0.065200
     46 H10          1.4290     1.1530     1.5340 hc         1 2LO       0.065200
     47 H11         -0.9480    -1.6130    -2.3340 h1         1 2LO       0.060200
     48 H12          0.5340    -0.6790    -2.4590 h1         1 2LO       0.060200
     49 H13          1.5820    -1.8970    -0.7240 h1         1 2LO       0.061700
     50 H15         -2.0860    -2.6960    -0.5520 h1         1 2LO       0.038950
     51 H16         -1.3690    -4.3120    -0.6000 h1         1 2LO       0.038950
     52 H17         -2.3200    -2.8070     1.9120 h1         1 2LO       0.053700
     53 H18         -3.0790    -4.2370     1.1720 h1         1 2LO       0.053700
     54 H19         -0.1100    -3.0910     3.0100 h1         1 2LO       0.053700
     55 H20          0.6250    -4.7130     3.0110 h1         1 2LO       0.053700
     56 H21          1.0010    -4.6200     0.5800 h1         1 2LO       0.038950
     57 H22          1.7150    -3.1810     1.3230 h1         1 2LO       0.038950
     58 H23          1.5120    -3.0310    -2.8870 hc         1 2LO       0.043700
     59 H24          1.5910    -4.2090    -1.5730 hc         1 2LO       0.043700
     60 H25          0.0530    -3.9230    -2.4200 hc         1 2LO       0.043700
     61 H26         -2.9450    -0.8620    -2.5510 ha         1 2LO       0.115000
     62 H27         -5.1440     0.2120    -2.2590 ha         1 2LO       0.113000
     63 H28         -3.5080     2.6870     0.9230 ha         1 2LO       0.128000
     64 H29         -5.2370     3.2270     2.4330 hc         1 2LO       0.064367
     65 H30         -6.6930     2.3160     2.8540 hc         1 2LO       0.064367
     66 H31         -5.2700     1.4560     2.2610 hc         1 2LO       0.064367
     67 H32         -7.1130     1.1430    -3.1240 hc         1 2LO       0.055700
     68 H33         -7.5000     2.8460    -3.4110 hc         1 2LO       0.055700
     69 H34         -5.8110     2.3520    -3.2500 hc         1 2LO       0.055700
@<TRIPOS>BOND
     1     1     2 1   
     2     2     3 ar  
     3     2     8 ar  
     4     3     4 1   
     5     3     6 ar  
     6     4     5 1   
     7     5    37 1   
     8     5    38 1   
     9     5    39 1   
    10     6     7 ar  
    11     6    40 1   
    12     7     9 ar  
    13     7    41 1   
    14     8     9 ar  
    15     8    42 1   
    16     9    10 1   
    17    10    11 1   
    18    10    43 1   
    19    10    44 1   
    20    11    12 1   
    21    11    45 1   
    22    11    46 1   
    23    12    13 1   
    24    12    26 2   
    25    13    14 1   
    26    13    23 1   
    27    14    15 1   
    28    14    47 1   
    29    14    48 1   
    30    15    16 1   
    31    15    22 1   
    32    15    49 1   
    33    16    17 1   
    34    16    21 1   
    35    17    18 1   
    36    17    50 1   
    37    17    51 1   
    38    18    19 1   
    39    18    52 1   
    40    18    53 1   
    41    19    20 1   
    42    20    21 1   
    43    20    54 1   
    44    20    55 1   
    45    21    56 1   
    46    21    57 1   
    47    22    58 1   
    48    22    59 1   
    49    22    60 1   
    50    23    24 ar  
    51    23    27 ar  
    52    24    25 ar  
    53    24    61 1   
    54    25    29 ar  
    55    25    62 1   
    56    26    27 1   
    57    27    28 ar  
    58    28    29 ar  
    59    28    63 1   
    60    29    30 1   
    61    30    31 2   
    62    30    35 1   
    63    31    32 1   
    64    31    33 1   
    65    32    64 1   
    66    32    65 1   
    67    32    66 1   
    68    33    34 1   
    69    34    35 2   
    70    35    36 1   
    71    36    67 1   
    72    36    68 1   
    73    36    69 1   
@<TRIPOS>SUBSTRUCTURE
     1 2LO         1 TEMP              0 ****  ****    0 ROOT
