@<TRIPOS>MOLECULE
2LP
   20    20     1     0     0
SMALL
abcg2


@<TRIPOS>ATOM
      1 C1          -0.4420    -0.3600     0.0530 ca         1 2LP      -0.167300
      2 C2           0.8270     0.0410     0.4910 ca         1 2LP       0.149100
      3 C3          -1.4740    -0.4090     0.9860 ca         1 2LP      -0.070000
      4 C4          -0.6890    -0.7420    -1.3860 c3         1 2LP      -0.004900
      5 C5           1.0390     0.3620     1.8290 ca         1 2LP      -0.147000
      6 O6           1.8950     0.1150    -0.3350 oh         1 2LP      -0.546100
      7 C7          -1.2710    -0.0900     2.3210 ca         1 2LP      -0.147000
      8 C8          -0.0040     0.2910     2.7400 ca         1 2LP      -0.076000
      9 C13         -0.4520     0.3950    -2.3380 c2         1 2LP      -0.225200
     10 C14          0.3760     0.3500    -3.3780 c2         1 2LP      -0.327000
     11 HC3         -2.4590    -0.7120     0.6510 ha         1 2LP       0.109000
     12 HC41        -0.0730    -1.6000    -1.6730 hc         1 2LP       0.056700
     13 HC42        -1.7280    -1.0680    -1.4790 hc         1 2LP       0.056700
     14 HC5          2.0280     0.6660     2.1500 ha         1 2LP       0.127000
     15 HO6          1.6200     0.1340    -1.2600 ho         1 2LP       0.473000
     16 HC7         -2.0910    -0.1420     3.0250 ha         1 2LP       0.115000
     17 HC8          0.1780     0.5400     3.7770 ha         1 2LP       0.114000
     18 H13         -1.0040     1.3080    -2.1340 ha         1 2LP       0.178000
     19 H141         0.5090     1.2010    -4.0320 ha         1 2LP       0.166000
     20 H142         0.9420    -0.5440    -3.6190 ha         1 2LP       0.166000
@<TRIPOS>BOND
     1     1     2 ar  
     2     1     3 ar  
     3     1     4 1   
     4     2     5 ar  
     5     2     6 1   
     6     3     7 ar  
     7     3    11 1   
     8     4     9 1   
     9     4    12 1   
    10     4    13 1   
    11     5     8 ar  
    12     5    14 1   
    13     6    15 1   
    14     7     8 ar  
    15     7    16 1   
    16     8    17 1   
    17     9    10 2   
    18     9    18 1   
    19    10    19 1   
    20    10    20 1   
@<TRIPOS>SUBSTRUCTURE
     1 2LP         1 TEMP              0 ****  ****    0 ROOT
