@<TRIPOS>MOLECULE
2LP
   20    20     1     0     0
SMALL
No Charge or Current Charge


@<TRIPOS>ATOM
      1 C1          -0.4760    -0.3350     0.0550 ca         1 2LP      -0.167300
      2 C2           0.8030     0.1020     0.4670 ca         1 2LP       0.149100
      3 C3          -1.4970    -0.4620     1.0210 ca         1 2LP      -0.070000
      4 C4          -0.7630    -0.7020    -1.4020 c3         1 2LP      -0.004900
      5 C5           1.0540     0.4010     1.8150 ca         1 2LP      -0.147000
      6 O6           1.8030     0.2480    -0.4450 oh         1 2LP      -0.546100
      7 C7          -1.2440    -0.1570     2.3690 ca         1 2LP      -0.147000
      8 C8           0.0310     0.2730     2.7690 ca         1 2LP      -0.076000
      9 C13         -0.3950     0.4050    -2.3690 c2         1 2LP      -0.225200
     10 C14          0.5060     0.3000    -3.3590 c2         1 2LP      -0.327000
     11 HC3         -2.4890    -0.8020     0.7290 ha         1 2LP       0.109000
     12 HC41        -0.2240    -1.6230    -1.6540 hc         1 2LP       0.056700
     13 HC42        -1.8260    -0.9440    -1.5300 hc         1 2LP       0.056700
     14 HC5          2.0420     0.7370     2.1210 ha         1 2LP       0.127000
     15 HO6          1.3800     0.1940    -1.3320 ho         1 2LP       0.473000
     16 HC7         -2.0380    -0.2590     3.1060 ha         1 2LP       0.115000
     17 HC8          0.2260     0.5070     3.8140 ha         1 2LP       0.114000
     18 H13         -0.9360     1.3420    -2.2070 ha         1 2LP       0.178000
     19 H141         0.7210     1.1380    -4.0250 ha         1 2LP       0.166000
     20 H142         1.0500    -0.6270    -3.5550 ha         1 2LP       0.166000
@<TRIPOS>BOND
     1     1     2 ar  
     2     1     3 ar  
     3     1     4 1   
     4     2     5 ar  
     5     2     6 1   
     6     3     7 ar  
     7     3    11 1   
     8     4     9 1   
     9     4    12 1   
    10     4    13 1   
    11     5     8 ar  
    12     5    14 1   
    13     6    15 1   
    14     7     8 ar  
    15     7    16 1   
    16     8    17 1   
    17     9    10 2   
    18     9    18 1   
    19    10    19 1   
    20    10    20 1   
@<TRIPOS>SUBSTRUCTURE
     1 2LP         1 TEMP              0 ****  ****    0 ROOT
