@<TRIPOS>MOLECULE
2LQ
   46    47     1     0     0
SMALL
abcg2


@<TRIPOS>ATOM
      1 O01          1.9600    -1.2570     1.5800 o          1 2LQ      -0.593100
      2 C02          2.2140    -0.4980     0.6590 c          1 2LQ       0.598100
      3 C03          3.6290    -0.0240     0.3750 c3         1 2LQ      -0.135700
      4 C04          4.5610    -1.2560     0.1580 c3         1 2LQ      -0.061400
      5 C05          5.3130    -1.3210    -1.1840 c3         1 2LQ      -0.076400
      6 C06          6.6040    -0.4700    -1.2610 c3         1 2LQ      -0.037200
      7 C07          6.2160     0.8800    -0.7690 c2         1 2LQ      -0.228200
      8 C08          6.2130     1.1580     0.5330 c2         1 2LQ      -0.221200
      9 C09          5.1210     1.9480     1.1620 c3         1 2LQ      -0.039200
     10 C10          4.0240     0.9240     1.5360 c3         1 2LQ      -0.067400
     11 N11          1.2750     0.0140    -0.1760 ns         1 2LQ      -0.138000
     12 C12         -0.1090    -0.1940    -0.2020 ca         1 2LQ      -0.058000
     13 C13         -0.8240    -0.9190     0.7500 ca         1 2LQ      -0.148000
     14 C14         -2.2000    -1.0610     0.6170 ca         1 2LQ      -0.094500
     15 C15         -0.8080     0.3760    -1.2700 ca         1 2LQ      -0.148000
     16 C16         -2.1760     0.2240    -1.3830 ca         1 2LQ      -0.094500
     17 C17         -2.9060    -0.5050    -0.4440 ca         1 2LQ      -0.065300
     18 C18         -4.3970    -0.6240    -0.5590 c3         1 2LQ      -0.070100
     19 C19         -5.1390     0.6210    -0.0150 c3         1 2LQ       0.027500
     20 C20         -6.6490     0.4240    -0.2710 c          1 2LQ       0.723000
     21 O21         -7.0190     0.5360    -1.4570 o          1 2LQ      -0.729000
     22 O22         -7.3640     0.1290     0.7070 o          1 2LQ      -0.729000
     23 N23         -4.8710     0.9140     1.3790 n8         1 2LQ      -0.985200
     24 H031         3.6190     0.5680    -0.5440 hc         1 2LQ       0.050700
     25 H042         5.2710    -1.3310     0.9850 hc         1 2LQ       0.052700
     26 H041         3.9600    -2.1650     0.2220 hc         1 2LQ       0.052700
     27 H051         5.5710    -2.3630    -1.3910 hc         1 2LQ       0.039700
     28 H052         4.6340    -1.0170    -1.9870 hc         1 2LQ       0.039700
     29 H062         7.3660    -0.9120    -0.6130 hc         1 2LQ       0.043700
     30 H061         6.9880    -0.4780    -2.2830 hc         1 2LQ       0.043700
     31 H071         5.6090     1.4860    -1.4410 ha         1 2LQ       0.165000
     32 H081         6.7910     0.5210     1.2000 ha         1 2LQ       0.166000
     33 H092         5.4250     2.4880     2.0610 hc         1 2LQ       0.046200
     34 H091         4.7060     2.6750     0.4590 hc         1 2LQ       0.046200
     35 H102         3.1470     1.4790     1.8820 hc         1 2LQ       0.054700
     36 H101         4.3600     0.3240     2.3860 hc         1 2LQ       0.054700
     37 H111         1.6200     0.6090    -0.9130 hn         1 2LQ       0.141000
     38 H131        -0.3250    -1.3730     1.5910 ha         1 2LQ       0.114500
     39 H141        -2.7330    -1.6360     1.3660 ha         1 2LQ       0.117000
     40 H151        -0.2700     0.9400    -2.0240 ha         1 2LQ       0.114500
     41 H161        -2.6860     0.6760    -2.2260 ha         1 2LQ       0.117000
     42 H181        -4.6750    -0.7670    -1.6060 hc         1 2LQ       0.055700
     43 H182        -4.7440    -1.5080    -0.0130 hc         1 2LQ       0.055700
     44 H191        -4.8070     1.4780    -0.6120 h1         1 2LQ       0.044700
     45 H232        -5.3030     0.2010     1.9540 hn         1 2LQ       0.377500
     46 H231        -3.8750     0.8700     1.5590 hn         1 2LQ       0.377500
@<TRIPOS>BOND
     1     1     2 2   
     2     2     3 1   
     3     2    11 1   
     4     3     4 1   
     5     3    10 1   
     6     3    24 1   
     7     4     5 1   
     8     4    25 1   
     9     4    26 1   
    10     5     6 1   
    11     5    27 1   
    12     5    28 1   
    13     6     7 1   
    14     6    29 1   
    15     6    30 1   
    16     7     8 2   
    17     7    31 1   
    18     8     9 1   
    19     8    32 1   
    20     9    10 1   
    21     9    33 1   
    22     9    34 1   
    23    10    35 1   
    24    10    36 1   
    25    11    12 1   
    26    11    37 1   
    27    12    13 ar  
    28    12    15 ar  
    29    13    14 ar  
    30    13    38 1   
    31    14    17 ar  
    32    14    39 1   
    33    15    16 ar  
    34    15    40 1   
    35    16    17 ar  
    36    16    41 1   
    37    17    18 1   
    38    18    19 1   
    39    18    42 1   
    40    18    43 1   
    41    19    20 1   
    42    19    23 1   
    43    19    44 1   
    44    20    21 1   
    45    20    22 1   
    46    23    45 1   
    47    23    46 1   
@<TRIPOS>SUBSTRUCTURE
     1 2LQ         1 TEMP              0 ****  ****    0 ROOT
