@<TRIPOS>MOLECULE
2LQ
   46    47     1     0     0
SMALL
No Charge or Current Charge


@<TRIPOS>ATOM
      1 O01          2.0180    -1.1770     1.8400 o          1 2LQ      -0.593100
      2 C02          2.2380    -0.4870     0.8490 c          1 2LQ       0.598100
      3 C03          3.6690    -0.0180     0.4910 c3         1 2LQ      -0.135700
      4 C04          4.5790    -1.2640     0.1320 c3         1 2LQ      -0.061400
      5 C05          5.2780    -1.2640    -1.2730 c3         1 2LQ      -0.076400
      6 C06          6.5650    -0.4000    -1.4040 c3         1 2LQ      -0.037200
      7 C07          6.2930     0.9580    -0.8330 c2         1 2LQ      -0.228200
      8 C08          6.4040     1.1710     0.4820 c2         1 2LQ      -0.221200
      9 C09          5.3400     1.9230     1.2220 c3         1 2LQ      -0.039200
     10 C10          4.2140     0.9290     1.6290 c3         1 2LQ      -0.067400
     11 N11          1.2580    -0.0560    -0.0410 ns         1 2LQ      -0.138000
     12 C12         -0.1510    -0.2510    -0.0920 ca         1 2LQ      -0.058000
     13 C13         -0.8730    -1.0050     0.8590 ca         1 2LQ      -0.148000
     14 C14         -2.2670    -1.1530     0.7400 ca         1 2LQ      -0.094500
     15 C15         -0.8500     0.3450    -1.1580 ca         1 2LQ      -0.148000
     16 C16         -2.2430     0.1960    -1.2760 ca         1 2LQ      -0.094500
     17 C17         -2.9620    -0.5510    -0.3260 ca         1 2LQ      -0.065300
     18 C18         -4.4750    -0.7160    -0.4600 c3         1 2LQ      -0.070100
     19 C19         -5.2700     0.5940    -0.2170 c3         1 2LQ       0.027500
     20 C20         -6.8120     0.3810    -0.5250 c          1 2LQ       0.723000
     21 O21         -7.3050     0.9870    -1.4690 o          1 2LQ      -0.729000
     22 O22         -7.4690    -0.3260     0.2300 o          1 2LQ      -0.729000
     23 N23         -4.9220     1.1670     1.1340 n8         1 2LQ      -0.985200
     24 H031         3.5720     0.5930    -0.4150 hc         1 2LQ       0.050700
     25 H042         5.3310    -1.4210     0.9150 hc         1 2LQ       0.052700
     26 H041         3.9540    -2.1660     0.1640 hc         1 2LQ       0.052700
     27 H051         5.5420    -2.2980    -1.5300 hc         1 2LQ       0.039700
     28 H052         4.5510    -0.9430    -2.0290 hc         1 2LQ       0.039700
     29 H062         7.3820    -0.8920    -0.8620 hc         1 2LQ       0.043700
     30 H061         6.8730    -0.3330    -2.4550 hc         1 2LQ       0.043700
     31 H071         5.6080     1.5550    -1.4390 ha         1 2LQ       0.165000
     32 H081         6.9630     0.4770     1.1140 ha         1 2LQ       0.166000
     33 H092         5.7510     2.4160     2.1120 hc         1 2LQ       0.046200
     34 H091         4.9110     2.7110     0.5900 hc         1 2LQ       0.046200
     35 H102         3.3820     1.5260     2.0240 hc         1 2LQ       0.054700
     36 H101         4.5640     0.3130     2.4670 hc         1 2LQ       0.054700
     37 H111         1.6160     0.5050    -0.8020 hn         1 2LQ       0.141000
     38 H131        -0.3790    -1.4850     1.6970 ha         1 2LQ       0.114500
     39 H141        -2.8060    -1.7380     1.4810 ha         1 2LQ       0.117000
     40 H151        -0.3130     0.9280    -1.9030 ha         1 2LQ       0.114500
     41 H161        -2.7640     0.6630    -2.1090 ha         1 2LQ       0.117000
     42 H181        -4.7080    -1.0820    -1.4680 hc         1 2LQ       0.055700
     43 H182        -4.8390    -1.4900     0.2270 hc         1 2LQ       0.055700
     44 H191        -4.9130     1.3210    -0.9600 h1         1 2LQ       0.044700
     45 H232        -5.3150     0.5540     1.8590 hn         1 2LQ       0.377500
     46 H231        -3.9080     1.0850     1.2670 hn         1 2LQ       0.377500
@<TRIPOS>BOND
     1     1     2 2   
     2     2     3 1   
     3     2    11 1   
     4     3     4 1   
     5     3    10 1   
     6     3    24 1   
     7     4     5 1   
     8     4    25 1   
     9     4    26 1   
    10     5     6 1   
    11     5    27 1   
    12     5    28 1   
    13     6     7 1   
    14     6    29 1   
    15     6    30 1   
    16     7     8 2   
    17     7    31 1   
    18     8     9 1   
    19     8    32 1   
    20     9    10 1   
    21     9    33 1   
    22     9    34 1   
    23    10    35 1   
    24    10    36 1   
    25    11    12 1   
    26    11    37 1   
    27    12    13 ar  
    28    12    15 ar  
    29    13    14 ar  
    30    13    38 1   
    31    14    17 ar  
    32    14    39 1   
    33    15    16 ar  
    34    15    40 1   
    35    16    17 ar  
    36    16    41 1   
    37    17    18 1   
    38    18    19 1   
    39    18    42 1   
    40    18    43 1   
    41    19    20 1   
    42    19    23 1   
    43    19    44 1   
    44    20    21 1   
    45    20    22 1   
    46    23    45 1   
    47    23    46 1   
@<TRIPOS>SUBSTRUCTURE
     1 2LQ         1 TEMP              0 ****  ****    0 ROOT
