@<TRIPOS>MOLECULE
2LR
   85    86     1     0     0
SMALL
bcc


@<TRIPOS>ATOM
      1 C7          -3.8300    -0.0250     0.8170 c          1 2LR       0.755100
      2 O8          -3.2590     0.6080     1.6810 o          1 2LR      -0.596000
      3 O6          -5.0820     0.2050     0.4170 os         1 2LR      -0.429900
      4 C5          -5.7910     1.2620     1.0770 c3         1 2LR       0.208700
      5 C4          -7.1080     1.4060     0.3760 ca         1 2LR      -0.101300
      6 C31         -7.2550     2.3090    -0.6720 ca         1 2LR      -0.101500
      7 C32         -8.4670     2.4240    -1.3390 ca         1 2LR      -0.134500
      8 C1          -9.5440     1.6320    -0.9640 ca         1 2LR      -0.116000
      9 C2          -9.4050     0.7280     0.0810 ca         1 2LR      -0.134500
     10 C3          -8.1920     0.6160     0.7470 ca         1 2LR      -0.101500
     11 N9          -3.2840    -1.0620     0.1510 ns         1 2LR      -0.544900
     12 C10         -1.8870    -1.3650     0.3050 c3         1 2LR       0.051700
     13 C15         -1.0210    -0.2150    -0.2150 c          1 2LR       0.651100
     14 O30         -1.3660     0.4730    -1.1620 o          1 2LR      -0.604100
     15 C11         -1.5380    -2.6390    -0.4660 c3         1 2LR      -0.085400
     16 C12         -2.2520    -3.9050     0.0170 c3         1 2LR      -0.058700
     17 C13         -1.8730    -5.0730    -0.8880 c3         1 2LR      -0.091100
     18 C14         -1.9330    -4.2280     1.4720 c3         1 2LR      -0.091100
     19 N16          0.1530    -0.0850     0.4180 ns         1 2LR      -0.560900
     20 C17          1.1550     0.8880     0.0450 c3         1 2LR       0.038700
     21 C22          2.5170     0.2570     0.3180 c          1 2LR       0.655100
     22 O23          2.7180    -0.3610     1.3560 o          1 2LR      -0.618100
     23 C18          0.9870     2.1910     0.8380 c3         1 2LR      -0.091400
     24 C19          1.8870     3.3490     0.4010 c3         1 2LR      -0.065700
     25 C20          1.5620     3.8220    -1.0120 c3         1 2LR      -0.086600
     26 C21          1.7500     4.5030     1.3900 c3         1 2LR      -0.086600
     27 C26          5.2680    -0.3700    -1.9870 c3         1 2LR      -0.089400
     28 C28          5.0530    -1.4920    -4.2050 c3         1 2LR      -0.090100
     29 C33          5.7630     0.7890     0.2310 c3         1 2LR       0.157100
     30 C34          6.7630    -0.0410     1.0380 cx         1 2LR       0.031800
     31 C45          7.5420    -1.1020     0.3080 c3         1 2LR      -0.080100
     32 O40          6.2840    -0.4210     2.3220 op         1 2LR      -0.387600
     33 C35          7.3400     0.5340     2.2510 cx         1 2LR       0.063400
     34 O43          5.1020     1.7080     1.0520 oh         1 2LR      -0.591800
     35 C25          4.7760    -0.1270    -0.5630 c3         1 2LR       0.081700
     36 C27          4.4400    -1.3570    -2.8140 c3         1 2LR      -0.057700
     37 C29          4.3290    -2.7220    -2.1420 c3         1 2LR      -0.090100
     38 N24          3.4390     0.4230    -0.6340 ns         1 2LR      -0.550900
     39 H1          -5.9370     1.0100     2.1290 h1         1 2LR       0.056700
     40 H2          -5.2200     2.1900     1.0250 h1         1 2LR       0.056700
     41 H47         -6.4180     2.9330    -0.9670 ha         1 2LR       0.134000
     42 H46         -8.5690     3.1320    -2.1510 ha         1 2LR       0.131500
     43 H45        -10.4910     1.7220    -1.4810 ha         1 2LR       0.130000
     44 H44        -10.2430     0.1100     0.3800 ha         1 2LR       0.131500
     45 H43         -8.0900    -0.0870     1.5650 ha         1 2LR       0.134000
     46 H42         -3.7740    -1.4330    -0.6490 hn         1 2LR       0.333500
     47 H3          -1.6690    -1.5180     1.3650 h1         1 2LR       0.081700
     48 H36         -1.7540    -2.4800    -1.5270 hc         1 2LR       0.056700
     49 H37         -0.4570    -2.7920    -0.3930 hc         1 2LR       0.056700
     50 H38         -3.3330    -3.7530    -0.0720 hc         1 2LR       0.051700
     51 H4          -2.3850    -5.9870    -0.5820 hc         1 2LR       0.035700
     52 H5          -2.1350    -4.8770    -1.9290 hc         1 2LR       0.035700
     53 H6          -0.7980    -5.2670    -0.8470 hc         1 2LR       0.035700
     54 H39         -0.8580    -4.3600     1.6170 hc         1 2LR       0.035700
     55 H40         -2.2690    -3.4480     2.1570 hc         1 2LR       0.035700
     56 H41         -2.4240    -5.1530     1.7770 hc         1 2LR       0.035700
     57 H35          0.3270    -0.6250     1.2520 hn         1 2LR       0.337500
     58 H7           1.0360     1.0830    -1.0210 h1         1 2LR       0.080700
     59 H32         -0.0590     2.4990     0.7440 hc         1 2LR       0.062700
     60 H33          1.1520     1.9720     1.8970 hc         1 2LR       0.062700
     61 H34          2.9290     3.0170     0.4240 hc         1 2LR       0.058700
     62 H8           2.1820     4.6760    -1.2890 hc         1 2LR       0.032867
     63 H9           1.7290     3.0540    -1.7690 hc         1 2LR       0.032867
     64 H10          0.5170     4.1310    -1.0880 hc         1 2LR       0.032867
     65 H11          2.0250     4.1960     2.4010 hc         1 2LR       0.032867
     66 H12          2.3930     5.3390     1.1090 hc         1 2LR       0.032867
     67 H13          0.7230     4.8730     1.4230 hc         1 2LR       0.032867
     68 H14          5.3080     0.5930    -2.5100 hc         1 2LR       0.046700
     69 H15          6.3000    -0.7260    -1.9510 hc         1 2LR       0.046700
     70 H16          4.4550    -2.1510    -4.8360 hc         1 2LR       0.035533
     71 H17          5.1240    -0.5260    -4.7070 hc         1 2LR       0.035533
     72 H18          6.0610    -1.9100    -4.1490 hc         1 2LR       0.035533
     73 H19          6.3320     1.3850    -0.4910 h1         1 2LR       0.074700
     74 H20          8.2640    -1.5750     0.9740 hc         1 2LR       0.048367
     75 H21          6.8980    -1.8880    -0.0890 hc         1 2LR       0.048367
     76 H22          8.0960    -0.6670    -0.5250 hc         1 2LR       0.048367
     77 H23          8.3130     0.1810     2.5850 h1         1 2LR       0.081700
     78 H24          7.0920     1.5420     2.5660 h1         1 2LR       0.081700
     79 H25          4.6770     1.2210     1.7690 ho         1 2LR       0.433000
     80 H26          4.6900    -1.0800    -0.0350 h1         1 2LR       0.086700
     81 H27          3.4290    -0.9540    -2.9340 hc         1 2LR       0.047700
     82 H28          5.3190    -3.1400    -1.9380 hc         1 2LR       0.035533
     83 H29          3.7860    -2.6780    -1.1970 hc         1 2LR       0.035533
     84 H30          3.7980    -3.4280    -2.7830 hc         1 2LR       0.035533
     85 H31          3.2070     0.9900    -1.4350 hn         1 2LR       0.320500
@<TRIPOS>BOND
     1     1     2 2   
     2     1     3 1   
     3     1    11 1   
     4     3     4 1   
     5     4     5 1   
     6     4    39 1   
     7     4    40 1   
     8     5     6 ar  
     9     5    10 ar  
    10     6     7 ar  
    11     6    41 1   
    12     7     8 ar  
    13     7    42 1   
    14     8     9 ar  
    15     8    43 1   
    16     9    10 ar  
    17     9    44 1   
    18    10    45 1   
    19    11    12 1   
    20    11    46 1   
    21    12    13 1   
    22    12    15 1   
    23    12    47 1   
    24    13    14 2   
    25    13    19 1   
    26    15    16 1   
    27    15    48 1   
    28    15    49 1   
    29    16    17 1   
    30    16    18 1   
    31    16    50 1   
    32    17    51 1   
    33    17    52 1   
    34    17    53 1   
    35    18    54 1   
    36    18    55 1   
    37    18    56 1   
    38    19    20 1   
    39    19    57 1   
    40    20    21 1   
    41    20    23 1   
    42    20    58 1   
    43    21    22 2   
    44    21    38 1   
    45    23    24 1   
    46    23    59 1   
    47    23    60 1   
    48    24    25 1   
    49    24    26 1   
    50    24    61 1   
    51    25    62 1   
    52    25    63 1   
    53    25    64 1   
    54    26    65 1   
    55    26    66 1   
    56    26    67 1   
    57    27    35 1   
    58    27    36 1   
    59    27    68 1   
    60    27    69 1   
    61    28    36 1   
    62    28    70 1   
    63    28    71 1   
    64    28    72 1   
    65    29    30 1   
    66    29    34 1   
    67    29    35 1   
    68    29    73 1   
    69    30    31 1   
    70    30    32 1   
    71    30    33 1   
    72    31    74 1   
    73    31    75 1   
    74    31    76 1   
    75    32    33 1   
    76    33    77 1   
    77    33    78 1   
    78    34    79 1   
    79    35    38 1   
    80    35    80 1   
    81    36    37 1   
    82    36    81 1   
    83    37    82 1   
    84    37    83 1   
    85    37    84 1   
    86    38    85 1   
@<TRIPOS>SUBSTRUCTURE
     1 2LR         1 TEMP              0 ****  ****    0 ROOT
