@<TRIPOS>MOLECULE
2LR
   85    86     1     0     0
SMALL
No Charge or Current Charge


@<TRIPOS>ATOM
      1 C7          -4.4730    -0.2810     1.2380 c          1 2LR       0.639100
      2 O8          -4.3910    -0.4230     2.4470 o          1 2LR      -0.547000
      3 O6          -5.5960     0.0540     0.5500 os         1 2LR      -0.453100
      4 C5          -6.8040     0.2400     1.3050 c3         1 2LR       0.231900
      5 C4          -7.9240     0.6000     0.3380 ca         1 2LR      -0.101300
      6 C31         -8.1900     1.9480     0.0270 ca         1 2LR      -0.083500
      7 C32         -9.2250     2.2790    -0.8660 ca         1 2LR      -0.116500
      8 C1         -10.0000     1.2650    -1.4530 ca         1 2LR      -0.098000
      9 C2          -9.7380    -0.0820    -1.1490 ca         1 2LR      -0.116500
     10 C3          -8.7030    -0.4140    -0.2570 ca         1 2LR      -0.083500
     11 N9          -3.4380    -0.4040     0.3550 ns         1 2LR      -0.477900
     12 C10         -2.0440    -0.7520     0.7060 c3         1 2LR       0.051700
     13 C15         -1.0550     0.1240    -0.1180 c          1 2LR       0.584100
     14 O30         -1.3910     0.7750    -1.1010 o          1 2LR      -0.604100
     15 C11         -1.7710    -2.2680     0.4770 c3         1 2LR      -0.085400
     16 C12         -2.5440    -3.2500     1.4020 c3         1 2LR      -0.058700
     17 C13         -2.3660    -4.7090     0.9260 c3         1 2LR      -0.091100
     18 C14         -2.1360    -3.1110     2.8890 c3         1 2LR      -0.091100
     19 N16          0.2480     0.1200     0.3370 ns         1 2LR      -0.493900
     20 C17          1.3650     0.8770    -0.2680 c3         1 2LR       0.038700
     21 C22          2.7090     0.1900     0.1160 c          1 2LR       0.588100
     22 O23          2.8400    -0.5050     1.1160 o          1 2LR      -0.618100
     23 C18          1.2930     2.3640     0.1870 c3         1 2LR      -0.091400
     24 C19          2.3320     3.3400    -0.4380 c3         1 2LR      -0.065700
     25 C20          2.2290     3.4190    -1.9800 c3         1 2LR      -0.086600
     26 C21          2.2020     4.7480     0.1870 c3         1 2LR      -0.086600
     27 C26          5.8610     0.0850    -1.9910 c3         1 2LR      -0.089400
     28 C28          5.9730     0.1090    -4.5410 c3         1 2LR      -0.090100
     29 C33          5.9550     0.1080     0.6080 c3         1 2LR       0.180300
     30 C34          6.6950    -1.1270     1.1930 cx         1 2LR       0.055000
     31 C45          7.7630    -1.7260     0.2790 c3         1 2LR      -0.080100
     32 O40          5.8960    -2.0900     1.9210 op         1 2LR      -0.434000
     33 C35          6.8530    -1.3110     2.6810 cx         1 2LR       0.086600
     34 O43          5.1510     0.7460     1.6160 oh         1 2LR      -0.714000
     35 C25          5.0950    -0.2320    -0.6730 c3         1 2LR       0.081700
     36 C27          5.1660    -0.3620    -3.3100 c3         1 2LR      -0.057700
     37 C29          4.9210    -1.8890    -3.3680 c3         1 2LR      -0.090100
     38 N24          3.7650     0.4140    -0.7400 ns         1 2LR      -0.483900
     39 H1          -7.0690    -0.6770     1.8480 h1         1 2LR       0.056700
     40 H2          -6.6830     1.0450     2.0420 h1         1 2LR       0.056700
     41 H47         -7.5930     2.7400     0.4750 ha         1 2LR       0.116000
     42 H46         -9.4260     3.3220    -1.1020 ha         1 2LR       0.113500
     43 H45        -10.8000     1.5210    -2.1440 ha         1 2LR       0.112000
     44 H44        -10.3350    -0.8680    -1.6040 ha         1 2LR       0.113500
     45 H43         -8.5050    -1.4590    -0.0280 ha         1 2LR       0.116000
     46 H42         -3.6600    -0.2040    -0.6120 hn         1 2LR       0.333500
     47 H3          -1.8660    -0.5020     1.7590 h1         1 2LR       0.081700
     48 H36         -2.0070    -2.5010    -0.5700 hc         1 2LR       0.056700
     49 H37         -0.6970    -2.4630     0.5940 hc         1 2LR       0.056700
     50 H38         -3.6140    -3.0220     1.3270 hc         1 2LR       0.051700
     51 H4          -2.9480    -5.3960     1.5530 hc         1 2LR       0.035700
     52 H5          -2.7100    -4.8260    -0.1080 hc         1 2LR       0.035700
     53 H6          -1.3120    -5.0110     0.9740 hc         1 2LR       0.035700
     54 H39         -1.0660    -3.3100     3.0210 hc         1 2LR       0.035700
     55 H40         -2.3480    -2.1070     3.2720 hc         1 2LR       0.035700
     56 H41         -2.6930    -3.8240     3.5090 hc         1 2LR       0.035700
     57 H35          0.4520    -0.4570     1.1470 hn         1 2LR       0.337500
     58 H7           1.2650     0.8170    -1.3600 h1         1 2LR       0.080700
     59 H32          0.2900     2.7500    -0.0320 hc         1 2LR       0.062700
     60 H33          1.3970     2.3920     1.2790 hc         1 2LR       0.062700
     61 H34          3.3390     2.9850    -0.1850 hc         1 2LR       0.058700
     62 H8           2.9600     4.1330    -2.3790 hc         1 2LR       0.032867
     63 H9           2.4280     2.4490    -2.4500 hc         1 2LR       0.032867
     64 H10          1.2290     3.7490    -2.2870 hc         1 2LR       0.032867
     65 H11          2.3300     4.7040     1.2750 hc         1 2LR       0.032867
     66 H12          2.9680     5.4230    -0.2150 hc         1 2LR       0.032867
     67 H13          1.2170     5.1810    -0.0260 hc         1 2LR       0.032867
     68 H14          6.0280     1.1700    -2.0340 hc         1 2LR       0.046700
     69 H15          6.8580    -0.3660    -1.9590 hc         1 2LR       0.046700
     70 H16          5.4560    -0.1590    -5.4700 hc         1 2LR       0.035533
     71 H17          6.1000     1.1980    -4.5290 hc         1 2LR       0.035533
     72 H18          6.9680    -0.3530    -4.5560 hc         1 2LR       0.035533
     73 H19          6.7310     0.8230     0.3010 h1         1 2LR       0.074700
     74 H20          8.3240    -2.5200     0.7870 hc         1 2LR       0.048367
     75 H21          7.3160    -2.1720    -0.6170 hc         1 2LR       0.048367
     76 H22          8.4840    -0.9630    -0.0370 hc         1 2LR       0.048367
     77 H23          7.7090    -1.8690     3.0600 h1         1 2LR       0.081700
     78 H24          6.4210    -0.5870     3.3710 h1         1 2LR       0.081700
     79 H25          4.3070     0.2150     1.6230 ho         1 2LR       0.532000
     80 H26          4.9120    -1.3150    -0.6430 h1         1 2LR       0.086700
     81 H27          4.1860     0.1280    -3.3730 hc         1 2LR       0.047700
     82 H28          5.8610    -2.4410    -3.2410 hc         1 2LR       0.035533
     83 H29          4.2230    -2.2100    -2.5870 hc         1 2LR       0.035533
     84 H30          4.4860    -2.1740    -4.3340 hc         1 2LR       0.035533
     85 H31          3.5830     1.0270    -1.5250 hn         1 2LR       0.320500
@<TRIPOS>BOND
     1     1     2 2   
     2     1     3 1   
     3     1    11 1   
     4     3     4 1   
     5     4     5 1   
     6     4    39 1   
     7     4    40 1   
     8     5     6 ar  
     9     5    10 ar  
    10     6     7 ar  
    11     6    41 1   
    12     7     8 ar  
    13     7    42 1   
    14     8     9 ar  
    15     8    43 1   
    16     9    10 ar  
    17     9    44 1   
    18    10    45 1   
    19    11    12 1   
    20    11    46 1   
    21    12    13 1   
    22    12    15 1   
    23    12    47 1   
    24    13    14 2   
    25    13    19 1   
    26    15    16 1   
    27    15    48 1   
    28    15    49 1   
    29    16    17 1   
    30    16    18 1   
    31    16    50 1   
    32    17    51 1   
    33    17    52 1   
    34    17    53 1   
    35    18    54 1   
    36    18    55 1   
    37    18    56 1   
    38    19    20 1   
    39    19    57 1   
    40    20    21 1   
    41    20    23 1   
    42    20    58 1   
    43    21    22 2   
    44    21    38 1   
    45    23    24 1   
    46    23    59 1   
    47    23    60 1   
    48    24    25 1   
    49    24    26 1   
    50    24    61 1   
    51    25    62 1   
    52    25    63 1   
    53    25    64 1   
    54    26    65 1   
    55    26    66 1   
    56    26    67 1   
    57    27    35 1   
    58    27    36 1   
    59    27    68 1   
    60    27    69 1   
    61    28    36 1   
    62    28    70 1   
    63    28    71 1   
    64    28    72 1   
    65    29    30 1   
    66    29    34 1   
    67    29    35 1   
    68    29    73 1   
    69    30    31 1   
    70    30    32 1   
    71    30    33 1   
    72    31    74 1   
    73    31    75 1   
    74    31    76 1   
    75    32    33 1   
    76    33    77 1   
    77    33    78 1   
    78    34    79 1   
    79    35    38 1   
    80    35    80 1   
    81    36    37 1   
    82    36    81 1   
    83    37    82 1   
    84    37    83 1   
    85    37    84 1   
    86    38    85 1   
@<TRIPOS>SUBSTRUCTURE
     1 2LR         1 TEMP              0 ****  ****    0 ROOT
