@<TRIPOS>MOLECULE
2LS
   31    31     1     0     0
SMALL
abcg2


@<TRIPOS>ATOM
      1 C26          1.6450    -0.5420    -0.3910 c3         1 2LS      -0.110400
      2 C28          4.1290    -0.8500    -0.3220 c3         1 2LS      -0.088600
      3 C33         -0.8660    -0.4230    -0.5560 c3         1 2LS       0.199300
      4 C34         -2.1310     0.3900    -0.2910 cx         1 2LS       0.078000
      5 C45         -2.0230     1.8800    -0.4750 c3         1 2LS      -0.076100
      6 O40         -2.8940    -0.0310     0.8310 op         1 2LS      -0.432000
      7 C35         -3.4300    -0.2560    -0.4700 cx         1 2LS       0.072600
      8 O43         -1.0440    -1.7700    -0.1880 oh         1 2LS      -0.722000
      9 C25          0.3840     0.1790     0.0970 c3         1 2LS       0.136500
     10 C27          2.9620     0.0010     0.1690 c3         1 2LS      -0.062700
     11 C29          3.1850     1.4670    -0.1910 c3         1 2LS      -0.088600
     12 N24          0.2160     0.2070     1.5440 n8         1 2LS      -0.994200
     13 H14          1.5670    -1.6050    -0.1410 hc         1 2LS       0.051700
     14 H15          1.6810    -0.4870    -1.4860 hc         1 2LS       0.051700
     15 H16          4.2210    -0.7960    -1.4100 hc         1 2LS       0.033700
     16 H17          5.0750    -0.5120     0.1060 hc         1 2LS       0.033700
     17 H18          3.9980    -1.9000    -0.0540 hc         1 2LS       0.033700
     18 H19         -0.7070    -0.4150    -1.6410 h1         1 2LS       0.070700
     19 H20         -3.0040     2.3530    -0.4310 hc         1 2LS       0.048033
     20 H21         -1.3950     2.3270     0.2950 hc         1 2LS       0.048033
     21 H22         -1.5850     2.1160    -1.4460 hc         1 2LS       0.048033
     22 H23         -4.2910     0.3530    -0.7340 h1         1 2LS       0.078700
     23 H24         -3.4970    -1.2940    -0.7820 h1         1 2LS       0.078700
     24 H25         -1.4390    -1.7810     0.6930 ho         1 2LS       0.523000
     25 H26          0.4470     1.2180    -0.2370 h1         1 2LS       0.057700
     26 H27          2.9300    -0.0830     1.2610 hc         1 2LS       0.037700
     27 H28          2.4140     2.1200     0.2220 hc         1 2LS       0.033700
     28 H29          4.1440     1.8210     0.1910 hc         1 2LS       0.033700
     29 H30          3.1890     1.6050    -1.2750 hc         1 2LS       0.033700
     30 H31          0.4220    -0.7040     1.9370 hn         1 2LS       0.396000
     31 H2           0.8910     0.8360     1.9590 hn         1 2LS       0.396000
@<TRIPOS>BOND
     1     1     9 1   
     2     1    10 1   
     3     1    13 1   
     4     1    14 1   
     5     2    10 1   
     6     2    15 1   
     7     2    16 1   
     8     2    17 1   
     9     3     4 1   
    10     3     8 1   
    11     3     9 1   
    12     3    18 1   
    13     4     5 1   
    14     4     6 1   
    15     4     7 1   
    16     5    19 1   
    17     5    20 1   
    18     5    21 1   
    19     6     7 1   
    20     7    22 1   
    21     7    23 1   
    22     8    24 1   
    23     9    12 1   
    24     9    25 1   
    25    10    11 1   
    26    10    26 1   
    27    11    27 1   
    28    11    28 1   
    29    11    29 1   
    30    12    30 1   
    31    12    31 1   
@<TRIPOS>SUBSTRUCTURE
     1 2LS         1 TEMP              0 ****  ****    0 ROOT
