@<TRIPOS>MOLECULE
2LS
   31    31     1     0     0
SMALL
No Charge or Current Charge


@<TRIPOS>ATOM
      1 C26          1.6240    -0.5060    -0.4460 c3         1 2LS      -0.110400
      2 C28          4.1720    -0.6180    -0.5550 c3         1 2LS      -0.088600
      3 C33         -0.9620    -0.5310    -0.5080 c3         1 2LS       0.199300
      4 C34         -2.0970     0.5210    -0.4600 cx         1 2LS       0.078000
      5 C45         -1.8860     1.6910    -1.4200 c3         1 2LS      -0.076100
      6 O40         -2.6370     0.8700     0.8400 op         1 2LS      -0.432000
      7 C35         -3.5050     0.1490    -0.0690 cx         1 2LS       0.072600
      8 O43         -1.3340    -1.7840     0.0740 oh         1 2LS      -0.722000
      9 C25          0.3170    -0.0910     0.2830 c3         1 2LS       0.136500
     10 C27          2.9590    -0.0440     0.2110 c3         1 2LS      -0.062700
     11 C29          3.0690     1.4950     0.3310 c3         1 2LS      -0.088600
     12 N24          0.2950    -0.6870     1.6560 n8         1 2LS      -0.994200
     13 H14          1.6360    -1.5990    -0.5440 hc         1 2LS       0.051700
     14 H15          1.5900    -0.1090    -1.4690 hc         1 2LS       0.051700
     15 H16          4.2000    -0.2400    -1.5840 hc         1 2LS       0.033700
     16 H17          5.1110    -0.3390    -0.0620 hc         1 2LS       0.033700
     17 H18          4.1260    -1.7130    -0.5930 hc         1 2LS       0.033700
     18 H19         -0.6980    -0.6750    -1.5650 h1         1 2LS       0.070700
     19 H20         -2.5510     2.5290    -1.1810 hc         1 2LS       0.048033
     20 H21         -0.8550     2.0630    -1.3820 hc         1 2LS       0.048033
     21 H22         -2.0920     1.3840    -2.4520 hc         1 2LS       0.048033
     22 H23         -4.3360     0.7260    -0.4730 h1         1 2LS       0.078700
     23 H24         -3.7360    -0.8740     0.2250 h1         1 2LS       0.078700
     24 H25         -0.7690    -1.7220     0.9000 ho         1 2LS       0.523000
     25 H26          0.3170     1.0040     0.3780 h1         1 2LS       0.057700
     26 H27          3.0060    -0.4580     1.2260 hc         1 2LS       0.037700
     27 H28          2.2950     1.8990     0.9930 hc         1 2LS       0.033700
     28 H29          4.0410     1.7810     0.7500 hc         1 2LS       0.033700
     29 H30          2.9670     1.9720    -0.6520 hc         1 2LS       0.033700
     30 H31          1.2260    -0.5730     2.0740 hn         1 2LS       0.396000
     31 H2          -0.2980    -0.0970     2.2570 hn         1 2LS       0.396000
@<TRIPOS>BOND
     1     1     9 1   
     2     1    10 1   
     3     1    13 1   
     4     1    14 1   
     5     2    10 1   
     6     2    15 1   
     7     2    16 1   
     8     2    17 1   
     9     3     4 1   
    10     3     8 1   
    11     3     9 1   
    12     3    18 1   
    13     4     5 1   
    14     4     6 1   
    15     4     7 1   
    16     5    19 1   
    17     5    20 1   
    18     5    21 1   
    19     6     7 1   
    20     7    22 1   
    21     7    23 1   
    22     8    24 1   
    23     9    12 1   
    24     9    25 1   
    25    10    11 1   
    26    10    26 1   
    27    11    27 1   
    28    11    28 1   
    29    11    29 1   
    30    12    30 1   
    31    12    31 1   
@<TRIPOS>SUBSTRUCTURE
     1 2LS         1 TEMP              0 ****  ****    0 ROOT
