@<TRIPOS>MOLECULE
2LT
   23    23     1     0     0
SMALL
bcc


@<TRIPOS>ATOM
      1 N           15.9400   -11.3040   -10.2340 n8         1 2LT      -0.898800
      2 CA          14.9060   -11.9290    -9.4270 c3         1 2LT       0.025500
      3 C           13.5950   -12.1090   -10.2390 c          1 2LT       0.931600
      4 O           13.6900   -12.0530   -11.4810 o          1 2LT      -0.830800
      5 CB          14.6680   -11.1140    -8.1500 c3         1 2LT      -0.014100
      6 CG          15.9190   -10.9660    -7.3330 ca         1 2LT      -0.059300
      7 CD1         16.7440    -9.8540    -7.4700 ca         1 2LT      -0.082000
      8 CD2         16.3130   -11.9690    -6.4540 ca         1 2LT      -0.082000
      9 CE1         17.9180    -9.7510    -6.7460 ca         1 2LT      -0.039100
     10 CE2         17.4910   -11.8550    -5.7370 ca         1 2LT      -0.039100
     11 CZ          18.3260   -10.7440    -5.8580 ca         1 2LT       0.127100
     12 OH          19.4660   -10.5770    -5.1820 oh         1 2LT      -0.485100
     13 OXT         12.5630   -12.3360    -9.5780 o          1 2LT      -0.830800
     14 CL1         18.9270    -8.3590    -6.9340 cl         1 2LT      -0.128900
     15 CL2         17.9600   -13.1180    -4.6450 cl         1 2LT      -0.128900
     16 H           16.8560   -11.5880    -9.9150 hn         1 2LT       0.332800
     17 H2          15.8370   -11.6390   -11.1830 hn         1 2LT       0.332800
     18 HA          15.1910   -12.9460    -9.1060 h1         1 2LT      -0.001300
     19 HB2         14.2880   -10.1260    -8.4210 hc         1 2LT       0.061700
     20 HB3         13.8990   -11.6040    -7.5530 hc         1 2LT       0.061700
     21 HD1         16.4690    -9.0570    -8.1480 ha         1 2LT       0.158500
     22 HD2         15.6950   -12.8480    -6.3240 ha         1 2LT       0.158500
     23 HH          19.6520   -11.3380    -4.6170 ho         1 2LT       0.431000
@<TRIPOS>BOND
     1     1     2 1   
     2     1    16 1   
     3     1    17 1   
     4     2     3 1   
     5     2     5 1   
     6     2    18 1   
     7     3     4 1   
     8     3    13 1   
     9     5     6 1   
    10     5    19 1   
    11     5    20 1   
    12     6     7 ar  
    13     6     8 ar  
    14     7     9 ar  
    15     7    21 1   
    16     8    10 ar  
    17     8    22 1   
    18     9    11 ar  
    19     9    14 1   
    20    10    11 ar  
    21    10    15 1   
    22    11    12 1   
    23    12    23 1   
@<TRIPOS>SUBSTRUCTURE
     1 2LT         1 TEMP              0 ****  ****    0 ROOT
