@<TRIPOS>MOLECULE
2LU
   22    21     1     0     0
SMALL
bcc


@<TRIPOS>ATOM
      1 N           -1.5220     0.9300     0.9850 n8         1 2LU      -0.878800
      2 CA          -1.2990     0.1660    -0.2380 c3         1 2LU       0.155500
      3 C           -2.4720    -0.7390    -0.6130 c3         1 2LU      -0.131100
      4 CB          -0.0180    -0.6560    -0.1130 c3         1 2LU      -0.064400
      5 CG           1.2480     0.1160     0.2590 c3         1 2LU      -0.053700
      6 CD1          2.4280    -0.8460     0.3620 c3         1 2LU      -0.086100
      7 CD2          1.5530     1.2370    -0.7280 c3         1 2LU      -0.086100
      8 H           -2.4010     1.4280     0.9120 hn         1 2LU       0.332800
      9 H2          -1.6390     0.2870     1.7610 hn         1 2LU       0.332800
     10 HA          -1.1670     0.8920    -1.0470 h1         1 2LU       0.060700
     11 HC1         -3.3950    -0.1630    -0.7090 hc         1 2LU       0.035367
     12 HC2         -2.3000    -1.2510    -1.5620 hc         1 2LU       0.035367
     13 HC3         -2.6320    -1.5020     0.1540 hc         1 2LU       0.035367
     14 HB2          0.1500    -1.1790    -1.0610 hc         1 2LU       0.034200
     15 HB3         -0.1830    -1.4410     0.6380 hc         1 2LU       0.034200
     16 HG           1.0920     0.5680     1.2440 hc         1 2LU       0.059700
     17 HD11         3.3350    -0.3320     0.6870 hc         1 2LU       0.030367
     18 HD12         2.2280    -1.6470     1.0770 hc         1 2LU       0.030367
     19 HD13         2.6410    -1.3110    -0.6040 hc         1 2LU       0.030367
     20 HD21         0.7730     1.9980    -0.7360 hc         1 2LU       0.030367
     21 HD22         2.4920     1.7350    -0.4760 hc         1 2LU       0.030367
     22 HD23         1.6520     0.8470    -1.7450 hc         1 2LU       0.030367
@<TRIPOS>BOND
     1     1     2 1   
     2     1     8 1   
     3     1     9 1   
     4     2     3 1   
     5     2     4 1   
     6     2    10 1   
     7     3    11 1   
     8     3    12 1   
     9     3    13 1   
    10     4     5 1   
    11     4    14 1   
    12     4    15 1   
    13     5     6 1   
    14     5     7 1   
    15     5    16 1   
    16     6    17 1   
    17     6    18 1   
    18     6    19 1   
    19     7    20 1   
    20     7    21 1   
    21     7    22 1   
@<TRIPOS>SUBSTRUCTURE
     1 2LU         1 TEMP              0 ****  ****    0 ROOT
