@<TRIPOS>MOLECULE
2LV
   91    92     1     0     0
SMALL
No Charge or Current Charge


@<TRIPOS>ATOM
      1 C7          -5.3940    -0.5260     1.6210 c          1 2LV       0.638100
      2 O8          -5.2000    -0.7150     2.8110 o          1 2LV      -0.546000
      3 O6          -6.5980    -0.2830     1.0390 os         1 2LV      -0.453100
      4 C5          -7.7540    -0.2670     1.8920 c3         1 2LV       0.231900
      5 C4          -8.9810     0.0090     1.0330 ca         1 2LV      -0.101300
      6 C3          -9.6370    -1.0480     0.3710 ca         1 2LV      -0.085000
      7 C2         -10.7700    -0.7950    -0.4210 ca         1 2LV      -0.116000
      8 C1         -11.2550     0.5170    -0.5570 ca         1 2LV      -0.099000
      9 C43        -10.6040     1.5760     0.0990 ca         1 2LV      -0.116000
     10 C42         -9.4700     1.3240     0.8910 ca         1 2LV      -0.085000
     11 N9          -4.4280    -0.5020     0.6560 ns         1 2LV      -0.476900
     12 C10         -2.9820    -0.7250     0.8780 c3         1 2LV       0.052700
     13 C15         -2.1530     0.2780     0.0220 c          1 2LV       0.585100
     14 O41         -2.6360     0.9580    -0.8750 o          1 2LV      -0.605100
     15 C11         -2.5870    -2.1970     0.5570 c3         1 2LV      -0.090400
     16 C12         -3.1810    -3.2850     1.4960 c3         1 2LV      -0.057700
     17 C13         -2.9060    -4.7010     0.9400 c3         1 2LV      -0.091100
     18 C14         -2.6620    -3.1650     2.9490 c3         1 2LV      -0.091100
     19 N16         -0.8130     0.3520     0.3440 ns         1 2LV      -0.491900
     20 C17          0.1760     1.2300    -0.3190 c3         1 2LV       0.037700
     21 C22          1.5950     0.6140    -0.1520 c          1 2LV       0.581100
     22 O23          1.8930    -0.1270     0.7780 o          1 2LV      -0.622100
     23 C18          0.0720     2.6670     0.2700 c3         1 2LV      -0.076400
     24 C19          0.9710     3.7550    -0.3820 c3         1 2LV      -0.059700
     25 C20          0.6620     3.9660    -1.8840 c3         1 2LV      -0.090100
     26 C21          0.8580     5.0910     0.3860 c3         1 2LV      -0.090100
     27 C30          4.7830     1.3270    -0.2310 c3         1 2LV       0.075300
     28 O31          4.9020     2.6880    -0.7330 oh         1 2LV      -0.648000
     29 C25          3.8930     0.4640    -1.1780 c3         1 2LV       0.089700
     30 C26          4.4060     0.3740    -2.6440 c3         1 2LV      -0.090400
     31 C27          3.5600    -0.5180    -3.5990 c3         1 2LV      -0.059700
     32 C28          4.1040    -0.4460    -5.0440 c3         1 2LV      -0.092600
     33 C29          3.4660    -1.9880    -3.1230 c3         1 2LV      -0.092600
     34 N24          2.5020     0.9280    -1.1410 ns         1 2LV      -0.487900
     35 C35          7.2340    -1.0490     1.6040 ca         1 2LV      -0.028000
     36 C36          6.9710    -1.7320     2.8080 ca         1 2LV      -0.145000
     37 C37          7.9450    -2.5600     3.3910 ca         1 2LV      -0.084000
     38 C38          9.1950    -2.7170     2.7720 ca         1 2LV      -0.131000
     39 C39          9.4670    -2.0470     1.5680 ca         1 2LV      -0.084000
     40 C40          8.4930    -1.2180     0.9840 ca         1 2LV      -0.145000
     41 H1          -7.8750    -1.2330     2.4010 h1         1 2LV       0.057700
     42 H2          -7.6590     0.5110     2.6620 h1         1 2LV       0.057700
     43 H19         -9.2660    -2.0660     0.4690 ha         1 2LV       0.116000
     44 H20        -11.2720    -1.6150    -0.9290 ha         1 2LV       0.114500
     45 H21        -12.1330     0.7130    -1.1690 ha         1 2LV       0.113000
     46 H22        -10.9780     2.5920    -0.0070 ha         1 2LV       0.114500
     47 H23         -8.9710     2.1500     1.3930 ha         1 2LV       0.116000
     48 H24         -4.7470    -0.2810    -0.2790 hn         1 2LV       0.334500
     49 H3          -2.7420    -0.5010     1.9250 h1         1 2LV       0.080700
     50 H25         -2.8890    -2.4120    -0.4760 hc         1 2LV       0.058700
     51 H26         -1.4940    -2.2910     0.5770 hc         1 2LV       0.058700
     52 H27         -4.2710    -3.1620     1.5190 hc         1 2LV       0.051700
     53 H4          -1.8290    -4.8990     0.8860 hc         1 2LV       0.036033
     54 H5          -3.3640    -5.4650     1.5790 hc         1 2LV       0.036033
     55 H6          -3.3260    -4.8120    -0.0680 hc         1 2LV       0.036033
     56 H28         -1.5700    -3.2610     2.9830 hc         1 2LV       0.036033
     57 H29         -2.9350    -2.2020     3.3950 hc         1 2LV       0.036033
     58 H30         -3.0930    -3.9530     3.5790 hc         1 2LV       0.036033
     59 H31         -0.4820    -0.2540     1.0890 hn         1 2LV       0.324500
     60 H7          -0.0510     1.2510    -1.3920 h1         1 2LV       0.088700
     61 H32         -0.9720     2.9990     0.2030 hc         1 2LV       0.057200
     62 H33          0.3050     2.6130     1.3420 hc         1 2LV       0.057200
     63 H34          2.0170     3.4380    -0.2960 hc         1 2LV       0.052700
     64 H8          -0.3840     4.2620    -2.0290 hc         1 2LV       0.035367
     65 H9           1.3000     4.7540    -2.3020 hc         1 2LV       0.035367
     66 H10          0.8430     3.0550    -2.4650 hc         1 2LV       0.035367
     67 H11          1.1310     4.9580     1.4400 hc         1 2LV       0.035367
     68 H12          1.5300     5.8440    -0.0420 hc         1 2LV       0.035367
     69 H13         -0.1660     5.4830     0.3440 hc         1 2LV       0.035367
     70 H41          4.2880     1.3500     0.7500 h1         1 2LV       0.083700
     71 H42          5.7150     2.7180    -1.2880 ho         1 2LV       0.474000
     72 H36          3.9040    -0.5560    -0.7700 h1         1 2LV       0.080700
     73 H14          4.4510     1.3850    -3.0650 hc         1 2LV       0.053700
     74 H15          5.4360    -0.0050    -2.6410 hc         1 2LV       0.053700
     75 H35          2.1910     1.5630    -1.8660 hn         1 2LV       0.335500
     76 H37          2.5380    -0.1180    -3.6280 hc         1 2LV       0.055700
     77 H16          5.1260    -0.8400    -5.0970 hc         1 2LV       0.034867
     78 H17          3.4750    -1.0300    -5.7260 hc         1 2LV       0.034867
     79 H18          4.1160     0.5910    -5.4030 hc         1 2LV       0.034867
     80 H38          4.4650    -2.4260    -3.0080 hc         1 2LV       0.034867
     81 H39          2.9430    -2.0620    -2.1620 hc         1 2LV       0.034867
     82 H40          2.9090    -2.5940    -3.8470 hc         1 2LV       0.034867
     83 H44          6.0060    -1.6200     3.2980 ha         1 2LV       0.128500
     84 H45          7.7300    -3.0810     4.3220 ha         1 2LV       0.115000
     85 H46          9.9500    -3.3580     3.2220 ha         1 2LV       0.117000
     86 H47         10.4340    -2.1720     1.0850 ha         1 2LV       0.115000
     87 H48          8.7340    -0.7250     0.0480 ha         1 2LV       0.128500
     88 H43          5.3150    -0.3340     1.5500 hn         1 2LV       0.158000
     89 C32          6.1710     0.6620     0.0060 c          1 2LV       0.574100
     90 O33          7.1500     0.9650    -0.6710 o          1 2LV      -0.588100
     91 N34          6.2000    -0.2330     1.0700 ns         1 2LV      -0.134000
@<TRIPOS>BOND
     1     1     2 2   
     2     1     3 1   
     3     1    11 1   
     4     3     4 1   
     5     4     5 1   
     6     4    41 1   
     7     4    42 1   
     8     5     6 ar  
     9     5    10 ar  
    10     6     7 ar  
    11     6    43 1   
    12     7     8 ar  
    13     7    44 1   
    14     8     9 ar  
    15     8    45 1   
    16     9    10 ar  
    17     9    46 1   
    18    10    47 1   
    19    11    12 1   
    20    11    48 1   
    21    12    13 1   
    22    12    15 1   
    23    12    49 1   
    24    13    14 2   
    25    13    19 1   
    26    15    16 1   
    27    15    50 1   
    28    15    51 1   
    29    16    17 1   
    30    16    18 1   
    31    16    52 1   
    32    17    53 1   
    33    17    54 1   
    34    17    55 1   
    35    18    56 1   
    36    18    57 1   
    37    18    58 1   
    38    19    20 1   
    39    19    59 1   
    40    20    21 1   
    41    20    23 1   
    42    20    60 1   
    43    21    22 2   
    44    21    34 1   
    45    23    24 1   
    46    23    61 1   
    47    23    62 1   
    48    24    25 1   
    49    24    26 1   
    50    24    63 1   
    51    25    64 1   
    52    25    65 1   
    53    25    66 1   
    54    26    67 1   
    55    26    68 1   
    56    26    69 1   
    57    27    28 1   
    58    27    29 1   
    59    27    70 1   
    60    27    89 1   
    61    28    71 1   
    62    29    30 1   
    63    29    34 1   
    64    29    72 1   
    65    30    31 1   
    66    30    73 1   
    67    30    74 1   
    68    31    32 1   
    69    31    33 1   
    70    31    76 1   
    71    32    77 1   
    72    32    78 1   
    73    32    79 1   
    74    33    80 1   
    75    33    81 1   
    76    33    82 1   
    77    34    75 1   
    78    35    36 ar  
    79    35    40 ar  
    80    35    91 1   
    81    36    37 ar  
    82    36    83 1   
    83    37    38 ar  
    84    37    84 1   
    85    38    39 ar  
    86    38    85 1   
    87    39    40 ar  
    88    39    86 1   
    89    40    87 1   
    90    88    91 1   
    91    89    90 2   
    92    89    91 1   
@<TRIPOS>SUBSTRUCTURE
     1 2LV         1 TEMP              0 ****  ****    0 ROOT
