@<TRIPOS>MOLECULE
2LV
   91    92     1     0     0
SMALL
abcg2


@<TRIPOS>ATOM
      1 C7          -4.7230    -0.0350     0.6950 c          1 2LV       0.638100
      2 O8          -4.6410     0.9150     1.4470 o          1 2LV      -0.546000
      3 O6          -5.7340    -0.2430    -0.1500 os         1 2LV      -0.453100
      4 C5          -6.7710     0.7460    -0.1820 c3         1 2LV       0.231900
      5 C4          -7.6600     0.4130    -1.3410 ca         1 2LV      -0.101300
      6 C3          -8.9100    -0.1590    -1.1340 ca         1 2LV      -0.085000
      7 C2          -9.7300    -0.4760    -2.2110 ca         1 2LV      -0.116000
      8 C1          -9.2990    -0.2270    -3.5060 ca         1 2LV      -0.099000
      9 C43         -8.0490     0.3420    -3.7210 ca         1 2LV      -0.116000
     10 C42         -7.2360     0.6610    -2.6440 ca         1 2LV      -0.085000
     11 N9          -3.8090    -1.0240     0.6240 ns         1 2LV      -0.476900
     12 C10         -2.5590    -0.8960     1.3210 c3         1 2LV       0.052700
     13 C15         -1.7680     0.3090     0.8110 c          1 2LV       0.585100
     14 O41         -1.8010     0.6490    -0.3600 o          1 2LV      -0.605100
     15 C11         -1.7050    -2.1470     1.1040 c3         1 2LV      -0.090400
     16 C12         -2.2820    -3.4440     1.6750 c3         1 2LV      -0.057700
     17 C13         -1.3580    -4.6030     1.3160 c3         1 2LV      -0.091100
     18 C14         -2.4880    -3.3650     3.1830 c3         1 2LV      -0.091100
     19 N16         -1.0040     0.9050     1.7420 ns         1 2LV      -0.491900
     20 C17         -0.0020     1.9010     1.4240 c3         1 2LV       0.037700
     21 C22          1.3080     1.1630     1.1460 c          1 2LV       0.581100
     22 O23          1.9380     0.6360     2.0500 o          1 2LV      -0.622100
     23 C18          0.1400     2.9000     2.5650 c3         1 2LV      -0.076400
     24 C19          1.2230     3.9610     2.3570 c3         1 2LV      -0.059700
     25 C20          1.0310     4.7450     1.0620 c3         1 2LV      -0.090100
     26 C21          1.2460     4.9070     3.5530 c3         1 2LV      -0.090100
     27 C30          3.8370     1.4590    -1.1520 c3         1 2LV       0.075300
     28 O31          3.3030     2.2820    -2.1430 oh         1 2LV      -0.648000
     29 C25          2.8100     0.4120    -0.6650 c3         1 2LV       0.089700
     30 C26          2.4020    -0.5780    -1.7540 c3         1 2LV      -0.090400
     31 C27          1.3790    -1.6290    -1.3170 c3         1 2LV      -0.059700
     32 C28          1.0250    -2.5160    -2.5070 c3         1 2LV      -0.092600
     33 C29          1.8800    -2.4740    -0.1500 c3         1 2LV      -0.092600
     34 N24          1.6550     1.1110    -0.1480 ns         1 2LV      -0.487900
     35 C35          7.0350    -0.5480    -0.8240 ca         1 2LV      -0.028000
     36 C36          7.6540    -0.9280     0.3680 ca         1 2LV      -0.145000
     37 C37          8.8270    -1.6630     0.3510 ca         1 2LV      -0.084000
     38 C38          9.4050    -2.0330    -0.8560 ca         1 2LV      -0.131000
     39 C39          8.7870    -1.6580    -2.0400 ca         1 2LV      -0.084000
     40 C40          7.6090    -0.9220    -2.0390 ca         1 2LV      -0.145000
     41 H1          -7.3320     0.7310     0.7550 h1         1 2LV       0.057700
     42 H2          -6.3360     1.7400    -0.3010 h1         1 2LV       0.057700
     43 H19         -9.2490    -0.3570    -0.1240 ha         1 2LV       0.116000
     44 H20        -10.7010    -0.9190    -2.0350 ha         1 2LV       0.114500
     45 H21         -9.9350    -0.4720    -4.3470 ha         1 2LV       0.113000
     46 H22         -7.7090     0.5400    -4.7300 ha         1 2LV       0.114500
     47 H23         -6.2660     1.1130    -2.8200 ha         1 2LV       0.116000
     48 H24         -3.8730    -1.6850    -0.1350 hn         1 2LV       0.334500
     49 H3          -2.7530    -0.7670     2.3900 h1         1 2LV       0.080700
     50 H25         -1.5320    -2.2670     0.0290 hc         1 2LV       0.058700
     51 H26         -0.7210    -1.9730     1.5520 hc         1 2LV       0.058700
     52 H27         -3.2530    -3.6360     1.2060 hc         1 2LV       0.051700
     53 H4          -0.3630    -4.4600     1.7460 hc         1 2LV       0.036033
     54 H5          -1.7480    -5.5480     1.6960 hc         1 2LV       0.036033
     55 H6          -1.2410    -4.7030     0.2350 hc         1 2LV       0.036033
     56 H28         -1.5540    -3.1180     3.6940 hc         1 2LV       0.036033
     57 H29         -3.2280    -2.6130     3.4620 hc         1 2LV       0.036033
     58 H30         -2.8370    -4.3210     3.5760 hc         1 2LV       0.036033
     59 H31         -1.0110     0.5400     2.6820 hn         1 2LV       0.324500
     60 H7          -0.3430     2.4180     0.5270 h1         1 2LV       0.088700
     61 H32         -0.8290     3.3920     2.6980 hc         1 2LV       0.057200
     62 H33          0.3470     2.3580     3.4920 hc         1 2LV       0.057200
     63 H34          2.1960     3.4580     2.3130 hc         1 2LV       0.052700
     64 H8           0.0490     5.2250     1.0380 hc         1 2LV       0.035367
     65 H9           1.7840     5.5290     0.9690 hc         1 2LV       0.035367
     66 H10          1.1150     4.1170     0.1740 hc         1 2LV       0.035367
     67 H11          1.3850     4.3660     4.4900 hc         1 2LV       0.035367
     68 H12          2.0550     5.6330     3.4620 hc         1 2LV       0.035367
     69 H13          0.3070     5.4630     3.6260 hc         1 2LV       0.035367
     70 H41          4.0980     2.0860    -0.2910 h1         1 2LV       0.083700
     71 H42          3.6110     1.9540    -2.9990 ho         1 2LV       0.474000
     72 H36          3.2500    -0.1300     0.1730 h1         1 2LV       0.080700
     73 H14          2.0020    -0.0290    -2.6120 hc         1 2LV       0.053700
     74 H15          3.2950    -1.1010    -2.1120 hc         1 2LV       0.053700
     75 H35          1.0620     1.5740    -0.8190 hn         1 2LV       0.335500
     76 H37          0.4650    -1.1150    -1.0030 hc         1 2LV       0.055700
     77 H16          1.9040    -3.0490    -2.8770 hc         1 2LV       0.034867
     78 H17          0.2760    -3.2630    -2.2340 hc         1 2LV       0.034867
     79 H18          0.6200    -1.9310    -3.3340 hc         1 2LV       0.034867
     80 H38          2.8480    -2.9260    -0.3800 hc         1 2LV       0.034867
     81 H39          1.9860    -1.8970     0.7680 hc         1 2LV       0.034867
     82 H40          1.1810    -3.2850     0.0630 hc         1 2LV       0.034867
     83 H44          7.2120    -0.6470     1.3170 ha         1 2LV       0.128500
     84 H45          9.2890    -1.9420     1.2880 ha         1 2LV       0.115000
     85 H46         10.3210    -2.6070    -0.8730 ha         1 2LV       0.117000
     86 H47          9.2240    -1.9380    -2.9900 ha         1 2LV       0.115000
     87 H48          7.1560    -0.6510    -2.9780 ha         1 2LV       0.128500
     88 H43          5.5430     0.3390     0.2440 hn         1 2LV       0.158000
     89 C32          5.1030     0.7740    -1.6660 c          1 2LV       0.574100
     90 O33          5.3540     0.7660    -2.8580 o          1 2LV      -0.588100
     91 N34          5.8480     0.1890    -0.7070 ns         1 2LV      -0.134000
@<TRIPOS>BOND
     1     1     2 2   
     2     1     3 1   
     3     1    11 1   
     4     3     4 1   
     5     4     5 1   
     6     4    41 1   
     7     4    42 1   
     8     5     6 ar  
     9     5    10 ar  
    10     6     7 ar  
    11     6    43 1   
    12     7     8 ar  
    13     7    44 1   
    14     8     9 ar  
    15     8    45 1   
    16     9    10 ar  
    17     9    46 1   
    18    10    47 1   
    19    11    12 1   
    20    11    48 1   
    21    12    13 1   
    22    12    15 1   
    23    12    49 1   
    24    13    14 2   
    25    13    19 1   
    26    15    16 1   
    27    15    50 1   
    28    15    51 1   
    29    16    17 1   
    30    16    18 1   
    31    16    52 1   
    32    17    53 1   
    33    17    54 1   
    34    17    55 1   
    35    18    56 1   
    36    18    57 1   
    37    18    58 1   
    38    19    20 1   
    39    19    59 1   
    40    20    21 1   
    41    20    23 1   
    42    20    60 1   
    43    21    22 2   
    44    21    34 1   
    45    23    24 1   
    46    23    61 1   
    47    23    62 1   
    48    24    25 1   
    49    24    26 1   
    50    24    63 1   
    51    25    64 1   
    52    25    65 1   
    53    25    66 1   
    54    26    67 1   
    55    26    68 1   
    56    26    69 1   
    57    27    28 1   
    58    27    29 1   
    59    27    70 1   
    60    27    89 1   
    61    28    71 1   
    62    29    30 1   
    63    29    34 1   
    64    29    72 1   
    65    30    31 1   
    66    30    73 1   
    67    30    74 1   
    68    31    32 1   
    69    31    33 1   
    70    31    76 1   
    71    32    77 1   
    72    32    78 1   
    73    32    79 1   
    74    33    80 1   
    75    33    81 1   
    76    33    82 1   
    77    34    75 1   
    78    35    36 ar  
    79    35    40 ar  
    80    35    91 1   
    81    36    37 ar  
    82    36    83 1   
    83    37    38 ar  
    84    37    84 1   
    85    38    39 ar  
    86    38    85 1   
    87    39    40 ar  
    88    39    86 1   
    89    40    87 1   
    90    88    91 1   
    91    89    90 2   
    92    89    91 1   
@<TRIPOS>SUBSTRUCTURE
     1 2LV         1 TEMP              0 ****  ****    0 ROOT
