@<TRIPOS>MOLECULE
2LW
   30    32     1     0     0
SMALL
abcg2


@<TRIPOS>ATOM
      1 CAH         -3.1470    -0.8680     0.8890 c6         1 2LW       0.109000
      2 CAG         -2.3530    -1.9460     0.1530 c6         1 2LW      -0.037200
      3 CAM         -0.9360    -1.5040     0.0960 cc         1 2LW      -0.059300
      4 NAJ          0.1290    -2.2910    -0.2340 na         1 2LW      -0.212700
      5 CAO          1.2660    -1.5360    -0.2160 ca         1 2LW      -0.045200
      6 CAE          2.5870    -1.8960    -0.4600 ca         1 2LW      -0.119000
      7 CAD          3.5520    -0.9140    -0.3550 ca         1 2LW      -0.086000
      8 CAL          3.1880     0.3970    -0.0250 ca         1 2LW       0.093000
      9 CL           4.4410     1.5970     0.0570 cl         1 2LW      -0.213000
     10 CAF          1.8890     0.7740     0.2230 ca         1 2LW      -0.051000
     11 CAP          0.9000    -0.2140     0.1320 ca         1 2LW      -0.077800
     12 CAN         -0.5160    -0.2250     0.3230 cd         1 2LW      -0.154400
     13 CAI         -1.4500     0.8870     0.6740 c6         1 2LW       0.171200
     14 NAQ         -2.8170     0.4650     0.4000 n          1 2LW      -0.417800
     15 CAK         -3.6950     1.2870    -0.2110 c          1 2LW       0.608100
     16 OAB         -3.3960     2.4330    -0.5320 o          1 2LW      -0.603100
     17 CAA         -5.0550     0.7270    -0.5580 c3         1 2LW      -0.176100
     18 H1          -4.2110    -1.0480     0.7860 h1         1 2LW       0.053700
     19 H2          -2.9060    -0.9000     1.9550 h1         1 2LW       0.053700
     20 H3          -2.4560    -2.8950     0.6840 hc         1 2LW       0.058700
     21 H4          -2.7520    -2.0910    -0.8550 hc         1 2LW       0.058700
     22 H5           0.0900    -3.2830    -0.4090 hn         1 2LW       0.352000
     23 H6           2.8590    -2.9120    -0.7160 ha         1 2LW       0.118000
     24 H7           4.5910    -1.1550    -0.5340 ha         1 2LW       0.128000
     25 H8           1.6440     1.7990     0.4740 ha         1 2LW       0.134000
     26 H9          -1.3590     1.1640     1.7310 h1         1 2LW       0.067700
     27 H10         -1.2180     1.7800     0.0960 h1         1 2LW       0.067700
     28 H11         -5.6740     0.6340     0.3370 hc         1 2LW       0.059367
     29 H12         -5.5550     1.4040    -1.2460 hc         1 2LW       0.059367
     30 H13         -5.0060    -0.2600    -1.0180 hc         1 2LW       0.059367
@<TRIPOS>BOND
     1     1     2 1   
     2     1    14 1   
     3     1    18 1   
     4     1    19 1   
     5     2     3 1   
     6     2    20 1   
     7     2    21 1   
     8     3     4 1   
     9     3    12 2   
    10     4     5 1   
    11     4    22 1   
    12     5     6 ar  
    13     5    11 ar  
    14     6     7 ar  
    15     6    23 1   
    16     7     8 ar  
    17     7    24 1   
    18     8     9 1   
    19     8    10 ar  
    20    10    11 ar  
    21    10    25 1   
    22    11    12 1   
    23    12    13 1   
    24    13    14 1   
    25    13    26 1   
    26    13    27 1   
    27    14    15 1   
    28    15    16 2   
    29    15    17 1   
    30    17    28 1   
    31    17    29 1   
    32    17    30 1   
@<TRIPOS>SUBSTRUCTURE
     1 2LW         1 TEMP              0 ****  ****    0 ROOT
