@<TRIPOS>MOLECULE
2LW
   30    32     1     0     0
SMALL
No Charge or Current Charge


@<TRIPOS>ATOM
      1 CAH         -3.1790    -0.8830     0.9170 c6         1 2LW       0.109000
      2 CAG         -2.3970    -1.9760     0.1510 c6         1 2LW      -0.037200
      3 CAM         -0.9530    -1.5620     0.0710 cc         1 2LW      -0.059300
      4 NAJ          0.1760    -2.3450    -0.2270 na         1 2LW      -0.212700
      5 CAO          1.3100    -1.5490    -0.1950 ca         1 2LW      -0.045200
      6 CAE          2.6450    -1.9040    -0.4260 ca         1 2LW      -0.119000
      7 CAD          3.6220    -0.8880    -0.3300 ca         1 2LW      -0.086000
      8 CAL          3.2470     0.4400    -0.0090 ca         1 2LW       0.093000
      9 Cl           4.4790     1.6900     0.1070 cl         1 2LW      -0.213000
     10 CAF          1.8930     0.7680     0.2190 ca         1 2LW      -0.051000
     11 CAP          0.9520    -0.2650     0.1150 ca         1 2LW      -0.077800
     12 CAN         -0.4810    -0.2740     0.2820 cd         1 2LW      -0.154400
     13 CAI         -1.4170     0.8700     0.6330 c6         1 2LW       0.171200
     14 NAQ         -2.8400     0.4770     0.4040 n          1 2LW      -0.417800
     15 CAK         -3.7420     1.3160    -0.2890 c          1 2LW       0.608100
     16 OAB         -3.3960     2.4240    -0.6800 o          1 2LW      -0.603100
     17 CAA         -5.1690     0.8300    -0.5530 c3         1 2LW      -0.176100
     18 H1          -4.2540    -1.0940     0.8650 h1         1 2LW       0.053700
     19 H2          -2.9020    -0.9300     1.9800 h1         1 2LW       0.053700
     20 H3          -2.5110    -2.9440     0.6570 hc         1 2LW       0.058700
     21 H4          -2.8170    -2.0900    -0.8570 hc         1 2LW       0.058700
     22 H5           0.1650    -3.3380    -0.4350 hn         1 2LW       0.352000
     23 H6           2.9220    -2.9270    -0.6720 ha         1 2LW       0.118000
     24 H7           4.6690    -1.1250    -0.5020 ha         1 2LW       0.128000
     25 H8           1.5950     1.7830     0.4660 ha         1 2LW       0.134000
     26 H9          -1.2870     1.1480     1.6890 h1         1 2LW       0.067700
     27 H10         -1.1520     1.7500     0.0310 h1         1 2LW       0.067700
     28 H11         -5.6540     0.6090     0.4040 hc         1 2LW       0.059367
     29 H12         -5.7560     1.5500    -1.1340 hc         1 2LW       0.059367
     30 H13         -5.1350    -0.1490    -1.0440 hc         1 2LW       0.059367
@<TRIPOS>BOND
     1     1     2 1   
     2     1    14 1   
     3     1    18 1   
     4     1    19 1   
     5     2     3 1   
     6     2    20 1   
     7     2    21 1   
     8     3     4 1   
     9     3    12 2   
    10     4     5 1   
    11     4    22 1   
    12     5     6 ar  
    13     5    11 ar  
    14     6     7 ar  
    15     6    23 1   
    16     7     8 ar  
    17     7    24 1   
    18     8     9 1   
    19     8    10 ar  
    20    10    11 ar  
    21    10    25 1   
    22    11    12 1   
    23    12    13 1   
    24    13    14 1   
    25    13    26 1   
    26    13    27 1   
    27    14    15 1   
    28    15    16 2   
    29    15    17 1   
    30    17    28 1   
    31    17    29 1   
    32    17    30 1   
@<TRIPOS>SUBSTRUCTURE
     1 2LW         1 TEMP              0 ****  ****    0 ROOT
