@<TRIPOS>MOLECULE
2LX
   34    35     1     0     0
SMALL
No Charge or Current Charge


@<TRIPOS>ATOM
      1 C01          4.2710     2.5190     0.2030 c3         1 2LX       0.097300
      2 N02          3.6250     1.2150     0.0370 ns         1 2LX      -0.510900
      3 C03          2.2790     0.9810     0.2230 c          1 2LX       0.622700
      4 C04          1.8320    -0.4550     0.0350 ca         1 2LX      -0.190600
      5 C05          2.7650    -1.5120     0.1900 ca         1 2LX      -0.054000
      6 C06          2.3720    -2.8490     0.0320 ca         1 2LX      -0.157000
      7 C07          1.0450    -3.1590    -0.2870 ca         1 2LX      -0.056000
      8 C08          0.1080    -2.1300    -0.4470 ca         1 2LX      -0.210000
      9 C09          0.4850    -0.7750    -0.2800 ca         1 2LX       0.195100
     10 O10         -0.4210     0.2530    -0.4820 os         1 2LX      -0.332100
     11 C11         -1.8500     0.0510    -0.4730 c6         1 2LX       0.181300
     12 C12         -2.3530    -0.3420     0.9420 c6         1 2LX      -0.130900
     13 C13         -3.8970    -0.3950     0.9720 c6         1 2LX       0.155600
     14 O14         -4.4380     0.8680     0.5330 os         1 2LX      -0.445000
     15 C15         -4.0800     1.2200    -0.8200 c6         1 2LX       0.155600
     16 C16         -2.5450     1.3540    -0.9350 c6         1 2LX      -0.130900
     17 O17          1.5350     1.8870     0.5710 o          1 2LX      -0.584100
     18 H1           3.8230     3.2440    -0.4890 h1         1 2LX       0.038367
     19 H2           4.1380     2.8680     1.2350 h1         1 2LX       0.038367
     20 H3           5.3430     2.4270    -0.0130 h1         1 2LX       0.038367
     21 H4           4.1880     0.4300    -0.2670 hn         1 2LX       0.316500
     22 H5           3.8000    -1.3130     0.4570 ha         1 2LX       0.117000
     23 H6           3.0990    -3.6470     0.1600 ha         1 2LX       0.119000
     24 H7           0.7440    -4.1970    -0.4150 ha         1 2LX       0.113000
     25 H8          -0.9060    -2.4080    -0.7120 ha         1 2LX       0.119000
     26 H9          -2.1120    -0.7340    -1.1960 h1         1 2LX       0.038700
     27 H10         -1.9490    -1.3160     1.2440 hc         1 2LX       0.068450
     28 H11         -1.9980     0.3890     1.6810 hc         1 2LX       0.068450
     29 H12         -4.2660    -1.1980     0.3160 h1         1 2LX       0.045700
     30 H13         -4.2470    -0.5990     1.9940 h1         1 2LX       0.045700
     31 H14         -4.4520     0.4480    -1.5090 h1         1 2LX       0.045700
     32 H15         -4.5620     2.1730    -1.0820 h1         1 2LX       0.045700
     33 H16         -2.2040     2.2000    -0.3230 hc         1 2LX       0.068450
     34 H17         -2.2680     1.5790    -1.9730 hc         1 2LX       0.068450
@<TRIPOS>BOND
     1     1     2 1   
     2     1    18 1   
     3     1    19 1   
     4     1    20 1   
     5     2     3 1   
     6     2    21 1   
     7     3     4 1   
     8     3    17 2   
     9     4     5 ar  
    10     4     9 ar  
    11     5     6 ar  
    12     5    22 1   
    13     6     7 ar  
    14     6    23 1   
    15     7     8 ar  
    16     7    24 1   
    17     8     9 ar  
    18     8    25 1   
    19     9    10 1   
    20    10    11 1   
    21    11    12 1   
    22    11    16 1   
    23    11    26 1   
    24    12    13 1   
    25    12    27 1   
    26    12    28 1   
    27    13    14 1   
    28    13    29 1   
    29    13    30 1   
    30    14    15 1   
    31    15    16 1   
    32    15    31 1   
    33    15    32 1   
    34    16    33 1   
    35    16    34 1   
@<TRIPOS>SUBSTRUCTURE
     1 2LX         1 TEMP              0 ****  ****    0 ROOT
