@<TRIPOS>MOLECULE
2LX
   34    35     1     0     0
SMALL
bcc


@<TRIPOS>ATOM
      1 C01          3.8750     2.5910    -0.0900 c3         1 2LX       0.097300
      2 N02          3.2800     1.2870    -0.2610 ns         1 2LX      -0.577900
      3 C03          2.3020     0.8330     0.5360 c          1 2LX       0.689700
      4 C04          1.8600    -0.5680     0.2430 ca         1 2LX      -0.190600
      5 C05          2.7790    -1.6080     0.2940 ca         1 2LX      -0.072000
      6 C06          2.3830    -2.9240     0.0970 ca         1 2LX      -0.175000
      7 C07          1.0510    -3.1900    -0.1700 ca         1 2LX      -0.074000
      8 C08          0.1170    -2.1630    -0.2410 ca         1 2LX      -0.228000
      9 C09          0.5120    -0.8430    -0.0320 ca         1 2LX       0.195100
     10 O10         -0.3010     0.2220    -0.1180 os         1 2LX      -0.308900
     11 C11         -1.7000     0.0590    -0.3180 c6         1 2LX       0.158100
     12 C12         -2.4190    -0.3740     0.9520 c6         1 2LX      -0.130900
     13 C13         -3.9230    -0.3670     0.7080 c6         1 2LX       0.132400
     14 O14         -4.3820     0.8950     0.2790 os         1 2LX      -0.398600
     15 C15         -3.7620     1.3030    -0.9210 c6         1 2LX       0.132400
     16 C16         -2.2490     1.3980    -0.7770 c6         1 2LX      -0.130900
     17 O17          1.8270     1.4930     1.4480 o          1 2LX      -0.584100
     18 H1           3.1380     3.3870    -0.2010 h1         1 2LX       0.038367
     19 H2           4.3450     2.6920     0.8890 h1         1 2LX       0.038367
     20 H3           4.6380     2.7220    -0.8510 h1         1 2LX       0.038367
     21 H4           3.6020     0.7080    -1.0180 hn         1 2LX       0.316500
     22 H5           3.8170    -1.3880     0.5080 ha         1 2LX       0.135000
     23 H6           3.1070    -3.7260     0.1530 ha         1 2LX       0.137000
     24 H7           0.7200    -4.2080    -0.3310 ha         1 2LX       0.131000
     25 H8          -0.9090    -2.4150    -0.4660 ha         1 2LX       0.137000
     26 H9          -1.8810    -0.6750    -1.1140 h1         1 2LX       0.038700
     27 H10         -2.1220    -1.3760     1.2710 hc         1 2LX       0.068450
     28 H11         -2.1700     0.3170     1.7620 hc         1 2LX       0.068450
     29 H12         -4.1780    -1.1390    -0.0330 h1         1 2LX       0.045700
     30 H13         -4.4580    -0.6080     1.6280 h1         1 2LX       0.045700
     31 H14         -4.0100     0.6070    -1.7350 h1         1 2LX       0.045700
     32 H15         -4.1790     2.2760    -1.1850 h1         1 2LX       0.045700
     33 H16         -1.9930     2.1730    -0.0480 hc         1 2LX       0.068450
     34 H17         -1.8130     1.6850    -1.7370 hc         1 2LX       0.068450
@<TRIPOS>BOND
     1     1     2 1   
     2     1    18 1   
     3     1    19 1   
     4     1    20 1   
     5     2     3 1   
     6     2    21 1   
     7     3     4 1   
     8     3    17 2   
     9     4     5 ar  
    10     4     9 ar  
    11     5     6 ar  
    12     5    22 1   
    13     6     7 ar  
    14     6    23 1   
    15     7     8 ar  
    16     7    24 1   
    17     8     9 ar  
    18     8    25 1   
    19     9    10 1   
    20    10    11 1   
    21    11    12 1   
    22    11    16 1   
    23    11    26 1   
    24    12    13 1   
    25    12    27 1   
    26    12    28 1   
    27    13    14 1   
    28    13    29 1   
    29    13    30 1   
    30    14    15 1   
    31    15    16 1   
    32    15    31 1   
    33    15    32 1   
    34    16    33 1   
    35    16    34 1   
@<TRIPOS>SUBSTRUCTURE
     1 2LX         1 TEMP              0 ****  ****    0 ROOT
