@<TRIPOS>MOLECULE
2LY
   22    23     1     0     0
SMALL
bcc


@<TRIPOS>ATOM
      1 C01          4.2410     0.6890    -0.0150 c3         1 2LY       0.095300
      2 N02          2.9640     0.0180    -0.0710 ns         1 2LY      -0.576900
      3 C03          1.8230     0.6370     0.2810 c          1 2LY       0.712700
      4 C04          0.5970    -0.1740     0.1990 cc         1 2LY      -0.167700
      5 C05         -0.6860     0.2950     0.0960 cd         1 2LY       0.118100
      6 C06         -1.6550    -0.7570     0.0390 cd         1 2LY       0.032100
      7 C07         -1.0940    -1.9930     0.1110 cc         1 2LY      -0.116100
      8 S08          0.6090    -1.9050     0.2440 ss         1 2LY      -0.061800
      9 O09         -2.9750    -0.5190    -0.0700 os         1 2LY      -0.285900
     10 C10         -3.3210     0.8260     0.2530 c6         1 2LY       0.092400
     11 C11         -2.3730     1.7930    -0.4150 c6         1 2LY       0.089400
     12 O12         -1.0320     1.5850     0.0320 os         1 2LY      -0.254900
     13 O13          1.7940     1.8000     0.6640 o          1 2LY      -0.580100
     14 H1           4.3190     1.4960    -0.7460 h1         1 2LY       0.039700
     15 H2           4.4210     1.1050     0.9750 h1         1 2LY       0.039700
     16 H3           5.0190    -0.0400    -0.2250 h1         1 2LY       0.039700
     17 H4           2.9250    -0.8580    -0.5650 hn         1 2LY       0.313500
     18 H5          -1.6000    -2.9460     0.1080 h4         1 2LY       0.183000
     19 H6          -4.3350     0.9910    -0.1070 h1         1 2LY       0.071700
     20 H7          -3.3110     0.9640     1.3390 h1         1 2LY       0.071700
     21 H8          -2.4190     1.6880    -1.5030 h1         1 2LY       0.073200
     22 H9          -2.6360     2.8170    -0.1540 h1         1 2LY       0.073200
@<TRIPOS>BOND
     1     1     2 1   
     2     1    14 1   
     3     1    15 1   
     4     1    16 1   
     5     2     3 1   
     6     2    17 1   
     7     3     4 1   
     8     3    13 2   
     9     4     5 2   
    10     4     8 1   
    11     5     6 1   
    12     5    12 1   
    13     6     7 2   
    14     6     9 1   
    15     7     8 1   
    16     7    18 1   
    17     9    10 1   
    18    10    11 1   
    19    10    19 1   
    20    10    20 1   
    21    11    12 1   
    22    11    21 1   
    23    11    22 1   
@<TRIPOS>SUBSTRUCTURE
     1 2LY         1 TEMP              0 ****  ****    0 ROOT
