@<TRIPOS>MOLECULE
2LY
   22    23     1     0     0
SMALL
No Charge or Current Charge


@<TRIPOS>ATOM
      1 C01          4.3330     0.6480     0.0610 c3         1 2LY       0.095300
      2 N02          3.0070     0.0280     0.0450 ns         1 2LY      -0.509900
      3 C03          1.8230     0.7270     0.0560 c          1 2LY       0.645700
      4 C04          0.6290    -0.1390     0.0360 cc         1 2LY      -0.312600
      5 C05         -0.6750     0.2790     0.0320 cd         1 2LY       0.118100
      6 C06         -1.6220    -0.7730    -0.0250 cd         1 2LY       0.032100
      7 C07         -1.0910    -2.0290    -0.0420 cc         1 2LY      -0.243000
      8 S08          0.6750    -1.9120    -0.0050 ss         1 2LY       0.228000
      9 O09         -2.9680    -0.5340     0.0130 os         1 2LY      -0.309100
     10 C10         -3.3920     0.8120     0.3430 c6         1 2LY       0.115600
     11 C11         -2.4570     1.8580    -0.3250 c6         1 2LY       0.112600
     12 O12         -1.0720     1.5890     0.0020 os         1 2LY      -0.278100
     13 O13          1.8000     1.9490     0.0800 o          1 2LY      -0.580100
     14 H1           4.4520     1.2880    -0.8230 h1         1 2LY       0.039700
     15 H2           4.4460     1.2540     0.9690 h1         1 2LY       0.039700
     16 H3           5.1030    -0.1330     0.0480 h1         1 2LY       0.039700
     17 H4           2.9440    -0.9820     0.0260 hn         1 2LY       0.313500
     18 H5          -1.5810    -2.9930    -0.0590 h4         1 2LY       0.165000
     19 H6          -4.4320     0.9570     0.0200 h1         1 2LY       0.071700
     20 H7          -3.3510     0.9370     1.4340 h1         1 2LY       0.071700
     21 H8          -2.5780     1.8050    -1.4160 h1         1 2LY       0.073200
     22 H9          -2.7170     2.8750    -0.0010 h1         1 2LY       0.073200
@<TRIPOS>BOND
     1     1     2 1   
     2     1    14 1   
     3     1    15 1   
     4     1    16 1   
     5     2     3 1   
     6     2    17 1   
     7     3     4 1   
     8     3    13 2   
     9     4     5 2   
    10     4     8 1   
    11     5     6 1   
    12     5    12 1   
    13     6     7 2   
    14     6     9 1   
    15     7     8 1   
    16     7    18 1   
    17     9    10 1   
    18    10    11 1   
    19    10    19 1   
    20    10    20 1   
    21    11    12 1   
    22    11    21 1   
    23    11    22 1   
@<TRIPOS>SUBSTRUCTURE
     1 2LY         1 TEMP              0 ****  ****    0 ROOT
