@<TRIPOS>MOLECULE
2LZ
   21    22     1     0     0
SMALL
No Charge or Current Charge


@<TRIPOS>ATOM
      1 C4         106.3740    20.7640    -2.7150 ca         1 2LZ      -0.065800
      2 C5         107.2400    21.4720    -3.5620 ca         1 2LZ      -0.058000
      3 C6         108.4320    21.9790    -3.0060 ca         1 2LZ       0.098000
      4 C8         105.1090    20.1390    -2.9890 cc         1 2LZ      -0.029400
      5 C9         104.6950    19.5820    -1.7820 cd         1 2LZ      -0.207100
      6 C12        104.3910    20.0880    -4.3130 c3         1 2LZ      -0.165200
      7 C13        103.6370    21.3950    -4.6160 c          1 2LZ       0.721000
      8 C3         106.6620    20.5640    -1.3930 ca         1 2LZ      -0.065200
      9 C1         108.7350    21.7750    -1.6400 ca         1 2LZ      -0.142000
     10 C2         107.8410    21.0580    -0.8150 ca         1 2LZ      -0.129000
     11 F7         109.2950    22.6670    -3.7850 f          1 2LZ      -0.205000
     12 N10        105.6580    19.8430    -0.7760 na         1 2LZ      -0.237700
     13 O14        104.2420    22.2920    -5.1850 o          1 2LZ      -0.728000
     14 O15        102.5020    21.5200    -4.1790 o          1 2LZ      -0.728000
     15 H1         107.0030    21.6290    -4.6100 ha         1 2LZ       0.152000
     16 H2         103.7880    19.0210    -1.5720 h4         1 2LZ       0.199000
     17 H3         103.6760    19.2600    -4.2390 hc         1 2LZ       0.028700
     18 H4         105.1610    19.9170    -5.0750 hc         1 2LZ       0.028700
     19 H5         109.6580    22.1710    -1.2250 ha         1 2LZ       0.106000
     20 H6         108.0620    20.8940     0.2370 ha         1 2LZ       0.096000
     21 H7         105.6200    19.5580     0.1980 hn         1 2LZ       0.330000
@<TRIPOS>BOND
     1     1     2 ar  
     2     1     4 1   
     3     1     8 ar  
     4     2     3 ar  
     5     2    15 1   
     6     3     9 ar  
     7     3    11 1   
     8     4     5 2   
     9     4     6 1   
    10     5    12 1   
    11     5    16 1   
    12     6     7 1   
    13     6    17 1   
    14     6    18 1   
    15     7    13 1   
    16     7    14 1   
    17     8    10 ar  
    18     8    12 1   
    19     9    10 ar  
    20     9    19 1   
    21    10    20 1   
    22    12    21 1   
@<TRIPOS>SUBSTRUCTURE
     1 2LZ         1 TEMP              0 ****  ****    0 ROOT
