@<TRIPOS>MOLECULE
2LZ
   21    22     1     0     0
SMALL
abcg2


@<TRIPOS>ATOM
      1 C4         106.3290    20.7780    -2.6980 ca         1 2LZ      -0.065800
      2 C5         107.1670    21.5800    -3.4820 ca         1 2LZ      -0.058000
      3 C6         108.3010    22.0790    -2.8900 ca         1 2LZ       0.098000
      4 C8         105.0950    20.1090    -2.9670 cc         1 2LZ      -0.029400
      5 C9         104.7500    19.4880    -1.7990 cd         1 2LZ      -0.207100
      6 C12        104.3850    20.0800    -4.2750 c3         1 2LZ      -0.165200
      7 C13        103.8430    21.4490    -4.7640 c          1 2LZ       0.721000
      8 C3         106.6700    20.5220    -1.3510 ca         1 2LZ      -0.065200
      9 C1         108.6500    21.8240    -1.5610 ca         1 2LZ      -0.142000
     10 C2         107.8290    21.0370    -0.7750 ca         1 2LZ      -0.129000
     11 F7         109.1260    22.8610    -3.6210 f          1 2LZ      -0.205000
     12 N10        105.6860    19.7340    -0.8300 na         1 2LZ      -0.237700
     13 O14        103.7700    21.5920    -6.0010 o          1 2LZ      -0.728000
     14 O15        103.4940    22.2650    -3.8920 o          1 2LZ      -0.728000
     15 H1         106.9350    21.8010    -4.5170 ha         1 2LZ       0.152000
     16 H2         103.8890    18.8740    -1.5830 h4         1 2LZ       0.199000
     17 H3         103.5290    19.3990    -4.2040 hc         1 2LZ       0.028700
     18 H4         105.0340    19.6550    -5.0470 hc         1 2LZ       0.028700
     19 H5         109.5600    22.2440    -1.1540 ha         1 2LZ       0.106000
     20 H6         108.0870    20.8330     0.2570 ha         1 2LZ       0.096000
     21 H7         105.6510    19.3830     0.1120 hn         1 2LZ       0.330000
@<TRIPOS>BOND
     1     1     2 ar  
     2     1     4 1   
     3     1     8 ar  
     4     2     3 ar  
     5     2    15 1   
     6     3     9 ar  
     7     3    11 1   
     8     4     5 2   
     9     4     6 1   
    10     5    12 1   
    11     5    16 1   
    12     6     7 1   
    13     6    17 1   
    14     6    18 1   
    15     7    13 1   
    16     7    14 1   
    17     8    10 ar  
    18     8    12 1   
    19     9    10 ar  
    20     9    19 1   
    21    10    20 1   
    22    12    21 1   
@<TRIPOS>SUBSTRUCTURE
     1 2LZ         1 TEMP              0 ****  ****    0 ROOT
