@<TRIPOS>MOLECULE
2M0
   31    30     1     0     0
SMALL
abcg2


@<TRIPOS>ATOM
      1 C26         -1.2200     0.5460    -0.4060 c3         1 2M0      -0.287400
      2 C28          3.8310     0.0260     0.0540 c3         1 2M0      -0.059700
      3 C41         -0.0650    -0.1960     0.2500 c3         1 2M0      -0.043400
      4 S42         -2.7870    -0.1760     0.0620 s6         1 2M0       1.076000
      5 O43         -2.8410    -1.5480    -0.4470 o          1 2M0      -0.521500
      6 O44         -2.9830     0.0190     1.5010 o          1 2M0      -0.521500
      7 C45         -3.9920     0.8000    -0.8090 c3         1 2M0      -0.335100
      8 C25          1.2790     0.4400    -0.1080 c3         1 2M0       0.166500
      9 C27          2.4190    -0.4470     0.4000 c3         1 2M0      -0.114400
     10 C30          4.8610    -0.9080     0.6820 c3         1 2M0      -0.089100
     11 C29          4.0510     0.1320    -1.4530 c3         1 2M0      -0.089100
     12 N24          1.3090     1.8100     0.3840 n8         1 2M0      -1.002200
     13 H14         -1.2390     1.5940    -0.1080 h1         1 2M0       0.101700
     14 H15         -1.1600     0.4950    -1.4950 h1         1 2M0       0.101700
     15 H16          3.9830     1.0210     0.4900 hc         1 2M0       0.037700
     16 H17         -0.1850    -0.1960     1.3370 hc         1 2M0       0.060200
     17 H18         -0.0640    -1.2400    -0.0710 hc         1 2M0       0.060200
     18 H19         -3.8380     0.6970    -1.8810 h1         1 2M0       0.102700
     19 H20         -4.9740     0.4190    -0.5350 h1         1 2M0       0.102700
     20 H21         -3.9010     1.8420    -0.5100 h1         1 2M0       0.102700
     21 H22          1.3380     0.4910    -1.2010 h1         1 2M0       0.058700
     22 H23          2.2840    -1.4600     0.0010 hc         1 2M0       0.047200
     23 H24          2.3290    -0.5360     1.4900 hc         1 2M0       0.047200
     24 H25          5.8790    -0.5770     0.4720 hc         1 2M0       0.034367
     25 H26          4.7440    -0.9580     1.7660 hc         1 2M0       0.034367
     26 H27          4.7580    -1.9250     0.2920 hc         1 2M0       0.034367
     27 H28          3.4120     0.8850    -1.9150 hc         1 2M0       0.034367
     28 H29          5.0830     0.4050    -1.6780 hc         1 2M0       0.034367
     29 H30          3.8440    -0.8220    -1.9460 hc         1 2M0       0.034367
     30 H31          1.4190     1.8030     1.3930 hn         1 2M0       0.396500
     31 H2           2.1210     2.2950     0.0230 hn         1 2M0       0.396500
@<TRIPOS>BOND
     1     1     3 1   
     2     1     4 1   
     3     1    13 1   
     4     1    14 1   
     5     2     9 1   
     6     2    10 1   
     7     2    11 1   
     8     2    15 1   
     9     3     8 1   
    10     3    16 1   
    11     3    17 1   
    12     4     5 2   
    13     4     6 2   
    14     4     7 1   
    15     7    18 1   
    16     7    19 1   
    17     7    20 1   
    18     8     9 1   
    19     8    12 1   
    20     8    21 1   
    21     9    22 1   
    22     9    23 1   
    23    10    24 1   
    24    10    25 1   
    25    10    26 1   
    26    11    27 1   
    27    11    28 1   
    28    11    29 1   
    29    12    30 1   
    30    12    31 1   
@<TRIPOS>SUBSTRUCTURE
     1 2M0         1 TEMP              0 ****  ****    0 ROOT
