@<TRIPOS>MOLECULE
2M0
   31    30     1     0     0
SMALL
No Charge or Current Charge


@<TRIPOS>ATOM
      1 C26         -1.3070     0.5530    -0.3820 c3         1 2M0      -0.287400
      2 C28          3.8890     0.0320     0.0240 c3         1 2M0      -0.059700
      3 C41         -0.0980    -0.2070     0.2290 c3         1 2M0      -0.043400
      4 S42         -2.9000    -0.1950     0.0200 s6         1 2M0       1.076000
      5 O43         -2.9590    -1.5160    -0.6180 o          1 2M0      -0.521500
      6 O44         -3.1060    -0.0850     1.4700 o          1 2M0      -0.521500
      7 C45         -4.1050     0.8560    -0.7850 c3         1 2M0      -0.335100
      8 C25          1.2780     0.4110    -0.1310 c3         1 2M0       0.166500
      9 C27          2.4560    -0.4410     0.4110 c3         1 2M0      -0.114400
     10 C30          4.9600    -0.8350     0.7240 c3         1 2M0      -0.089100
     11 C29          4.1200     0.0540    -1.5060 c3         1 2M0      -0.089100
     12 N24          1.3720     1.7950     0.3720 n8         1 2M0      -1.002200
     13 H14         -1.3490     1.5810    -0.0070 h1         1 2M0       0.101700
     14 H15         -1.2410     0.5690    -1.4760 h1         1 2M0       0.101700
     15 H16          4.0260     1.0560     0.3920 hc         1 2M0       0.037700
     16 H17         -0.2020    -0.2480     1.3210 hc         1 2M0       0.060200
     17 H18         -0.1160    -1.2460    -0.1260 hc         1 2M0       0.060200
     18 H19         -3.8950     0.8430    -1.8600 h1         1 2M0       0.102700
     19 H20         -5.0980     0.4450    -0.5720 h1         1 2M0       0.102700
     20 H21         -3.9990     1.8650    -0.3720 h1         1 2M0       0.102700
     21 H22          1.3460     0.4430    -1.2280 h1         1 2M0       0.058700
     22 H23          2.3280    -1.4730     0.0590 hc         1 2M0       0.047200
     23 H24          2.3810    -0.4850     1.5060 hc         1 2M0       0.047200
     24 H25          5.9680    -0.4690     0.4940 hc         1 2M0       0.034367
     25 H26          4.8330    -0.8060     1.8130 hc         1 2M0       0.034367
     26 H27          4.8920    -1.8800     0.3980 hc         1 2M0       0.034367
     27 H28          3.4550     0.7720    -1.9990 hc         1 2M0       0.034367
     28 H29          5.1510     0.3490    -1.7370 hc         1 2M0       0.034367
     29 H30          3.9430    -0.9370    -1.9420 hc         1 2M0       0.034367
     30 H31          1.3670     1.7720     1.3970 hn         1 2M0       0.396500
     31 H2           2.3030     2.1600     0.1460 hn         1 2M0       0.396500
@<TRIPOS>BOND
     1     1     3 1   
     2     1     4 1   
     3     1    13 1   
     4     1    14 1   
     5     2     9 1   
     6     2    10 1   
     7     2    11 1   
     8     2    15 1   
     9     3     8 1   
    10     3    16 1   
    11     3    17 1   
    12     4     5 2   
    13     4     6 2   
    14     4     7 1   
    15     7    18 1   
    16     7    19 1   
    17     7    20 1   
    18     8     9 1   
    19     8    12 1   
    20     8    21 1   
    21     9    22 1   
    22     9    23 1   
    23    10    24 1   
    24    10    25 1   
    25    10    26 1   
    26    11    27 1   
    27    11    28 1   
    28    11    29 1   
    29    12    30 1   
    30    12    31 1   
@<TRIPOS>SUBSTRUCTURE
     1 2M0         1 TEMP              0 ****  ****    0 ROOT
