@<TRIPOS>MOLECULE
2M1
   85    85     1     0     0
SMALL
bcc


@<TRIPOS>ATOM
      1 C7          -3.7360     0.2300     0.3260 c          1 2M1       0.754100
      2 O8          -3.3040     1.0840     1.0730 o          1 2M1      -0.600000
      3 O6          -4.8920     0.3230    -0.3370 os         1 2M1      -0.428900
      4 C5          -5.6600     1.5150    -0.1330 c3         1 2M1       0.207700
      5 C4          -6.9520     1.3380    -0.8710 ca         1 2M1      -0.102300
      6 C32         -7.9500     0.5150    -0.3510 ca         1 2M1      -0.102500
      7 C33         -9.1420     0.3360    -1.0370 ca         1 2M1      -0.133500
      8 C1          -9.3510     0.9810    -2.2510 ca         1 2M1      -0.116000
      9 C2          -8.3630     1.8020    -2.7740 ca         1 2M1      -0.133500
     10 C3          -7.1680     1.9760    -2.0870 ca         1 2M1      -0.102500
     11 N9          -3.1190    -0.9400     0.0730 ns         1 2M1      -0.549900
     12 C10         -1.8050    -1.1980     0.5970 c3         1 2M1       0.055700
     13 C15         -0.7850    -0.2260     0.0050 c          1 2M1       0.653100
     14 O31         -0.7710     0.0240    -1.1890 o          1 2M1      -0.607100
     15 C11         -1.3690    -2.6210     0.2470 c3         1 2M1      -0.089400
     16 C12         -2.2160    -3.7340     0.8680 c3         1 2M1      -0.058700
     17 C13         -1.7450    -5.0830     0.3350 c3         1 2M1      -0.091100
     18 C14         -2.1660    -3.7160     2.3920 c3         1 2M1      -0.091100
     19 N16          0.1010     0.2590     0.8900 ns         1 2M1      -0.557900
     20 C17          1.2250     1.1000     0.5400 c3         1 2M1       0.035700
     21 C22          2.4830     0.2530     0.7390 c          1 2M1       0.648100
     22 O23          2.8940    -0.0110     1.8600 o          1 2M1      -0.614100
     23 C18          1.2680     2.3720     1.3770 c3         1 2M1      -0.079400
     24 C19          0.0080     3.2360     1.2940 c3         1 2M1      -0.062700
     25 C20          0.1790     4.4660     2.1800 c3         1 2M1      -0.089100
     26 C21         -0.3300     3.6460    -0.1360 c3         1 2M1      -0.089100
     27 C41          5.4080    -0.5170    -0.9590 c3         1 2M1      -0.066400
     28 S42          7.3980     1.3150    -0.6220 s6         1 2M1       0.996000
     29 O43          8.4290     0.2750    -0.6180 o          1 2M1      -0.590800
     30 O44          7.1360     2.0060    -1.8870 o          1 2M1      -0.590800
     31 C45          7.8090     2.5240     0.6140 c3         1 2M1      -0.224300
     32 C25          4.1200    -1.1700    -0.4530 c3         1 2M1       0.114700
     33 C27          3.7290    -2.3520    -1.3390 c3         1 2M1      -0.089400
     34 C30          2.1340    -4.1860    -1.9280 c3         1 2M1      -0.092100
     35 C29          2.5340    -3.6430     0.4870 c3         1 2M1      -0.092100
     36 N24          3.0360    -0.2090    -0.3920 ns         1 2M1      -0.563900
     37 H1          -5.8410     1.6660     0.9330 h1         1 2M1       0.056700
     38 H2          -5.1150     2.3820    -0.5110 h1         1 2M1       0.056700
     39 H47         -7.7960     0.0160     0.5980 ha         1 2M1       0.133000
     40 H46         -9.9110    -0.3020    -0.6220 ha         1 2M1       0.132500
     41 H45        -10.2840     0.8470    -2.7830 ha         1 2M1       0.131000
     42 H44         -8.5200     2.3080    -3.7180 ha         1 2M1       0.132500
     43 H43         -6.3980     2.6180    -2.5000 ha         1 2M1       0.133000
     44 H42         -3.4780    -1.5320    -0.6610 hn         1 2M1       0.338500
     45 H3          -1.8270    -1.0860     1.6850 h1         1 2M1       0.075700
     46 H36         -1.3610    -2.7270    -0.8420 hc         1 2M1       0.059700
     47 H37         -0.3300    -2.7440     0.5720 hc         1 2M1       0.059700
     48 H38         -3.2570    -3.5960     0.5570 hc         1 2M1       0.051700
     49 H4          -0.7040    -5.2690     0.6100 hc         1 2M1       0.035867
     50 H5          -2.3430    -5.8980     0.7460 hc         1 2M1       0.035867
     51 H6          -1.8150    -5.1320    -0.7530 hc         1 2M1       0.035867
     52 H39         -2.7780    -4.5190     2.8060 hc         1 2M1       0.035867
     53 H40         -1.1440    -3.8620     2.7500 hc         1 2M1       0.035867
     54 H41         -2.5350    -2.7790     2.8120 hc         1 2M1       0.035867
     55 H35         -0.0160     0.0290     1.8650 hn         1 2M1       0.329500
     56 H7           1.1150     1.3610    -0.5130 h1         1 2M1       0.087700
     57 H32          1.4570     2.1090     2.4220 hc         1 2M1       0.053200
     58 H33          2.1310     2.9590     1.0470 hc         1 2M1       0.053200
     59 H34         -0.8340     2.6540     1.6820 hc         1 2M1       0.066700
     60 H8           1.0040     5.0910     1.8280 hc         1 2M1       0.034033
     61 H9          -0.7230     5.0790     2.1780 hc         1 2M1       0.034033
     62 H10          0.3900     4.1890     3.2140 hc         1 2M1       0.034033
     63 H11         -0.6060     2.7930    -0.7560 hc         1 2M1       0.034033
     64 H12         -1.1770     4.3350    -0.1480 hc         1 2M1       0.034033
     65 H13          0.5130     4.1520    -0.6130 hc         1 2M1       0.034033
     66 H14          5.1410     1.4130     0.0180 h1         1 2M1       0.100200
     67 H15          6.0540     0.2320     0.9780 h1         1 2M1       0.100200
     68 H16          1.6190    -2.3610    -0.9610 hc         1 2M1       0.048700
     69 H17          5.2520    -0.1310    -1.9690 hc         1 2M1       0.065700
     70 H18          6.1790    -1.2870    -1.0200 hc         1 2M1       0.065700
     71 H19          7.9200     2.0330     1.5780 h1         1 2M1       0.104367
     72 H20          8.7520     2.9810     0.3180 h1         1 2M1       0.104367
     73 H21          7.0280     3.2800     0.6590 h1         1 2M1       0.104367
     74 H22          4.2930    -1.5210     0.5650 h1         1 2M1       0.084700
     75 H23          4.5600    -3.0650    -1.3390 hc         1 2M1       0.048200
     76 H24          3.6290    -2.0010    -2.3720 hc         1 2M1       0.048200
     77 H25          1.1910    -4.6800    -1.6880 hc         1 2M1       0.035200
     78 H26          2.0520    -3.7950    -2.9440 hc         1 2M1       0.035200
     79 H27          2.9160    -4.9490    -1.9280 hc         1 2M1       0.035200
     80 H28          2.6570    -2.8630     1.2400 hc         1 2M1       0.035200
     81 H29          1.6270    -4.1950     0.7440 hc         1 2M1       0.035200
     82 H30          3.3740    -4.3350     0.5810 hc         1 2M1       0.035200
     83 H31          2.6300     0.0770    -1.2700 hn         1 2M1       0.320500
     84 C26          5.8660     0.6000    -0.0330 c3         1 2M1      -0.181600
     85 C28          2.4460    -3.0790    -0.9280 c3         1 2M1      -0.058700
@<TRIPOS>BOND
     1     1     2 2   
     2     1     3 1   
     3     1    11 1   
     4     3     4 1   
     5     4     5 1   
     6     4    37 1   
     7     4    38 1   
     8     5     6 ar  
     9     5    10 ar  
    10     6     7 ar  
    11     6    39 1   
    12     7     8 ar  
    13     7    40 1   
    14     8     9 ar  
    15     8    41 1   
    16     9    10 ar  
    17     9    42 1   
    18    10    43 1   
    19    11    12 1   
    20    11    44 1   
    21    12    13 1   
    22    12    15 1   
    23    12    45 1   
    24    13    14 2   
    25    13    19 1   
    26    15    16 1   
    27    15    46 1   
    28    15    47 1   
    29    16    17 1   
    30    16    18 1   
    31    16    48 1   
    32    17    49 1   
    33    17    50 1   
    34    17    51 1   
    35    18    52 1   
    36    18    53 1   
    37    18    54 1   
    38    19    20 1   
    39    19    55 1   
    40    20    21 1   
    41    20    23 1   
    42    20    56 1   
    43    21    22 2   
    44    21    36 1   
    45    23    24 1   
    46    23    57 1   
    47    23    58 1   
    48    24    25 1   
    49    24    26 1   
    50    24    59 1   
    51    25    60 1   
    52    25    61 1   
    53    25    62 1   
    54    26    63 1   
    55    26    64 1   
    56    26    65 1   
    57    27    32 1   
    58    27    69 1   
    59    27    70 1   
    60    27    84 1   
    61    28    29 2   
    62    28    30 2   
    63    28    31 1   
    64    28    84 1   
    65    31    71 1   
    66    31    72 1   
    67    31    73 1   
    68    32    33 1   
    69    32    36 1   
    70    32    74 1   
    71    33    75 1   
    72    33    76 1   
    73    33    85 1   
    74    34    77 1   
    75    34    78 1   
    76    34    79 1   
    77    34    85 1   
    78    35    80 1   
    79    35    81 1   
    80    35    82 1   
    81    35    85 1   
    82    36    83 1   
    83    66    84 1   
    84    67    84 1   
    85    68    85 1   
@<TRIPOS>SUBSTRUCTURE
     1 2M1         1 TEMP              0 ****  ****    0 ROOT
