@<TRIPOS>MOLECULE
2M1
   85    85     1     0     0
SMALL
No Charge or Current Charge


@<TRIPOS>ATOM
      1 C7          -4.6360     0.1800     1.1620 c          1 2M1       0.638100
      2 O8          -4.5910     0.4600     2.3490 o          1 2M1      -0.551000
      3 O6          -5.7120     0.3370     0.3470 os         1 2M1      -0.452100
      4 C5          -6.9140     0.8620     0.9310 c3         1 2M1       0.230900
      5 C4          -7.9790     0.9450    -0.1550 ca         1 2M1      -0.102300
      6 C32         -8.8290    -0.1520    -0.4020 ca         1 2M1      -0.084500
      7 C33         -9.8130    -0.0740    -1.4040 ca         1 2M1      -0.115500
      8 C1          -9.9520     1.0990    -2.1650 ca         1 2M1      -0.098000
      9 C2          -9.1050     2.1940    -1.9250 ca         1 2M1      -0.115500
     10 C3          -8.1220     2.1180    -0.9230 ca         1 2M1      -0.084500
     11 N9          -3.5980    -0.3170     0.4280 ns         1 2M1      -0.482900
     12 C10         -2.2450    -0.6210     0.9430 c3         1 2M1       0.055700
     13 C15         -1.1710    -0.1620    -0.0860 c          1 2M1       0.586100
     14 O31         -1.4320     0.1130    -1.2510 o          1 2M1      -0.607100
     15 C11         -2.0960    -2.1370     1.2650 c3         1 2M1      -0.089400
     16 C12         -2.9650    -2.6760     2.4370 c3         1 2M1      -0.058700
     17 C13         -2.9010    -4.2190     2.5050 c3         1 2M1      -0.091100
     18 C14         -2.5740    -2.0570     3.8010 c3         1 2M1      -0.091100
     19 N16          0.1140    -0.0860     0.4110 ns         1 2M1      -0.490900
     20 C17          1.3140     0.3210    -0.3580 c3         1 2M1       0.035700
     21 C22          2.4990    -0.6310    -0.0280 c          1 2M1       0.581100
     22 O23          2.5020    -1.3860     0.9370 o          1 2M1      -0.614100
     23 C18          1.6930     1.7990    -0.0570 c3         1 2M1      -0.079400
     24 C19          0.6730     2.8740    -0.5270 c3         1 2M1      -0.062700
     25 C20          1.0380     4.2650     0.0420 c3         1 2M1      -0.089100
     26 C21          0.5430     2.9370    -2.0680 c3         1 2M1      -0.089100
     27 C41          5.9710    -0.4250    -0.3690 c3         1 2M1      -0.066400
     28 S42          7.1180     1.3270     1.5110 s6         1 2M1       1.076000
     29 O43          8.2450     0.4360     1.8110 o          1 2M1      -0.520000
     30 O44          7.2920     2.4100     0.5360 o          1 2M1      -0.520000
     31 C45          6.5720     2.0590     3.0510 c3         1 2M1      -0.335100
     32 C25          4.7980    -1.3370    -0.8030 c3         1 2M1       0.114700
     33 C27          5.0980    -2.0820    -2.1290 c3         1 2M1      -0.089400
     34 C30          4.3440    -3.6290    -4.0160 c3         1 2M1      -0.092100
     35 C29          3.6630    -4.1730    -1.6260 c3         1 2M1      -0.092100
     36 N24          3.5580    -0.5620    -0.9110 ns         1 2M1      -0.496900
     37 H1          -7.2680     0.2120     1.7430 h1         1 2M1       0.056700
     38 H2          -6.7390     1.8610     1.3510 h1         1 2M1       0.056700
     39 H47         -8.7260    -1.0650     0.1810 ha         1 2M1       0.115000
     40 H46        -10.4660    -0.9240    -1.5910 ha         1 2M1       0.114500
     41 H45        -10.7130     1.1580    -2.9400 ha         1 2M1       0.113000
     42 H44         -9.2110     3.1020    -2.5140 ha         1 2M1       0.114500
     43 H43         -7.4690     2.9700    -0.7450 ha         1 2M1       0.115000
     44 H42         -3.7810    -0.4480    -0.5590 hn         1 2M1       0.338500
     45 H3          -2.0680    -0.0330     1.8530 h1         1 2M1       0.075700
     46 H36         -2.3320    -2.7020     0.3550 hc         1 2M1       0.059700
     47 H37         -1.0450    -2.3550     1.4920 hc         1 2M1       0.059700
     48 H38         -4.0110    -2.4120     2.2390 hc         1 2M1       0.051700
     49 H4          -1.8770    -4.5600     2.7020 hc         1 2M1       0.035867
     50 H5          -3.5490    -4.6000     3.3030 hc         1 2M1       0.035867
     51 H6          -3.2350    -4.6640     1.5600 hc         1 2M1       0.035867
     52 H39         -3.2000    -2.4670     4.6030 hc         1 2M1       0.035867
     53 H40         -1.5270    -2.2730     4.0420 hc         1 2M1       0.035867
     54 H41         -2.7090    -0.9700     3.8020 hc         1 2M1       0.035867
     55 H35          0.2490    -0.3720     1.3750 hn         1 2M1       0.329500
     56 H7           1.1160     0.2010    -1.4300 h1         1 2M1       0.087700
     57 H32          1.8450     1.8980     1.0250 hc         1 2M1       0.053200
     58 H33          2.6630     2.0240    -0.5180 hc         1 2M1       0.053200
     59 H34         -0.3120     2.6140    -0.1190 hc         1 2M1       0.066700
     60 H8           2.0190     4.5920    -0.3250 hc         1 2M1       0.034033
     61 H9           0.2930     5.0130    -0.2550 hc         1 2M1       0.034033
     62 H10          1.0710     4.2400     1.1380 hc         1 2M1       0.034033
     63 H11          0.1950     1.9830    -2.4800 hc         1 2M1       0.034033
     64 H12         -0.1800     3.7070    -2.3630 hc         1 2M1       0.034033
     65 H13          1.5070     3.1790    -2.5310 hc         1 2M1       0.034033
     66 H14          4.8660     0.9880     0.9000 h1         1 2M1       0.100200
     67 H15          5.5410    -0.4110     1.7830 h1         1 2M1       0.100200
     68 H16          3.0630    -2.4570    -2.7700 hc         1 2M1       0.048700
     69 H17          6.1610     0.3150    -1.1580 hc         1 2M1       0.065700
     70 H18          6.8780    -1.0370    -0.2850 hc         1 2M1       0.065700
     71 H19          6.3540     1.2440     3.7490 h1         1 2M1       0.104367
     72 H20          7.3860     2.6900     3.4230 h1         1 2M1       0.104367
     73 H21          5.6760     2.6520     2.8400 h1         1 2M1       0.104367
     74 H22          4.6760    -2.0940    -0.0170 h1         1 2M1       0.084700
     75 H23          6.0260    -2.6550    -2.0080 hc         1 2M1       0.048200
     76 H24          5.2970    -1.3360    -2.9090 hc         1 2M1       0.048200
     77 H25          3.5330    -4.2620    -4.3950 hc         1 2M1       0.035200
     78 H26          4.5140    -2.8280    -4.7460 hc         1 2M1       0.035200
     79 H27          5.2550    -4.2370    -3.9570 hc         1 2M1       0.035200
     80 H28          3.2710    -3.7690    -0.6860 hc         1 2M1       0.035200
     81 H29          2.9030    -4.8510    -2.0340 hc         1 2M1       0.035200
     82 H30          4.5610    -4.7620    -1.4030 hc         1 2M1       0.035200
     83 H31          3.4670     0.0870    -1.6840 hn         1 2M1       0.320500
     84 C26          5.7230     0.3100     0.9780 c3         1 2M1      -0.292400
     85 C28          3.9810    -3.0420    -2.6330 c3         1 2M1      -0.058700
@<TRIPOS>BOND
     1     1     2 2   
     2     1     3 1   
     3     1    11 1   
     4     3     4 1   
     5     4     5 1   
     6     4    37 1   
     7     4    38 1   
     8     5     6 ar  
     9     5    10 ar  
    10     6     7 ar  
    11     6    39 1   
    12     7     8 ar  
    13     7    40 1   
    14     8     9 ar  
    15     8    41 1   
    16     9    10 ar  
    17     9    42 1   
    18    10    43 1   
    19    11    12 1   
    20    11    44 1   
    21    12    13 1   
    22    12    15 1   
    23    12    45 1   
    24    13    14 2   
    25    13    19 1   
    26    15    16 1   
    27    15    46 1   
    28    15    47 1   
    29    16    17 1   
    30    16    18 1   
    31    16    48 1   
    32    17    49 1   
    33    17    50 1   
    34    17    51 1   
    35    18    52 1   
    36    18    53 1   
    37    18    54 1   
    38    19    20 1   
    39    19    55 1   
    40    20    21 1   
    41    20    23 1   
    42    20    56 1   
    43    21    22 2   
    44    21    36 1   
    45    23    24 1   
    46    23    57 1   
    47    23    58 1   
    48    24    25 1   
    49    24    26 1   
    50    24    59 1   
    51    25    60 1   
    52    25    61 1   
    53    25    62 1   
    54    26    63 1   
    55    26    64 1   
    56    26    65 1   
    57    27    32 1   
    58    27    69 1   
    59    27    70 1   
    60    27    84 1   
    61    28    29 2   
    62    28    30 2   
    63    28    31 1   
    64    28    84 1   
    65    31    71 1   
    66    31    72 1   
    67    31    73 1   
    68    32    33 1   
    69    32    36 1   
    70    32    74 1   
    71    33    75 1   
    72    33    76 1   
    73    33    85 1   
    74    34    77 1   
    75    34    78 1   
    76    34    79 1   
    77    34    85 1   
    78    35    80 1   
    79    35    81 1   
    80    35    82 1   
    81    35    85 1   
    82    36    83 1   
    83    66    84 1   
    84    67    84 1   
    85    68    85 1   
@<TRIPOS>SUBSTRUCTURE
     1 2M1         1 TEMP              0 ****  ****    0 ROOT
