@<TRIPOS>MOLECULE
2M2
   49    52     1     0     0
SMALL
No Charge or Current Charge


@<TRIPOS>ATOM
      1 C1           4.0180     4.9480    -1.2380 c3         1 2M2      -0.132400
      2 C2           4.4080     4.0640    -0.0890 cc         1 2M2       0.274300
      3 C3           3.4930     3.2200     0.5580 cc         1 2M2      -0.248000
      4 C4           4.2140     2.5920     1.5210 cd         1 2M2       0.144300
      5 C5           3.8120     1.5580     2.5540 c3         1 2M2       0.201500
      6 N6           2.8900     0.5450     1.9750 nu         1 2M2      -0.926100
      7 C7           3.1640    -0.3680     0.9700 ca         1 2M2       0.420900
      8 N8           4.4340    -0.4670     0.5350 nb         1 2M2      -0.268000
      9 C9           4.6610    -1.3650    -0.4400 ca         1 2M2       0.174900
     10 C10          3.6220    -2.1470    -0.9640 ca         1 2M2      -0.337000
     11 C11          2.3410    -1.9570    -0.4390 ca         1 2M2       0.432900
     12 N12          1.2940    -2.7210    -0.9240 nu         1 2M2      -0.889800
     13 C13         -0.0560    -2.7260    -0.7770 cc         1 2M2       0.506900
     14 C14         -0.8130    -1.7620    -0.1040 cc         1 2M2      -0.214000
     15 C15         -2.1130    -2.1490    -0.2230 cd         1 2M2      -0.133300
     16 C16         -3.3720    -1.5040     0.2980 c3         1 2M2      -0.016100
     17 C17         -4.1120    -0.6940    -0.7860 c3         1 2M2      -0.030100
     18 C18         -5.3750    -0.0340    -0.2480 ca         1 2M2      -0.084300
     19 C19         -6.6100    -0.7090    -0.3050 ca         1 2M2      -0.106000
     20 C20         -7.7740    -0.1010     0.1960 ca         1 2M2      -0.108000
     21 C21         -7.7100     1.1850     0.7580 ca         1 2M2      -0.109000
     22 C22         -6.4810     1.8620     0.8200 ca         1 2M2      -0.108000
     23 C23         -5.3160     1.2540     0.3180 ca         1 2M2      -0.106000
     24 N24         -2.0600    -3.3360    -0.9710 na         1 2M2      -0.001200
     25 N26         -0.7510    -3.6870    -1.3220 nd         1 2M2      -0.583800
     26 N27          2.1070    -1.0680     0.5370 nb         1 2M2      -0.313000
     27 O28          5.5130     3.0310     1.4760 os         1 2M2      -0.052700
     28 N29          5.6300     3.9990     0.4120 nd         1 2M2      -0.363300
     29 H1           3.2480     5.6640    -0.9300 hc         1 2M2       0.055367
     30 H2           4.8780     5.5140    -1.6140 hc         1 2M2       0.055367
     31 H3           3.6180     4.3510    -2.0650 hc         1 2M2       0.055367
     32 H4           2.4420     3.1010     0.3230 ha         1 2M2       0.150000
     33 H5           4.7170     1.0740     2.9470 h1         1 2M2       0.082700
     34 H6           3.3300     2.0800     3.3920 h1         1 2M2       0.082700
     35 H7           1.9120     0.5750     2.2670 hn         1 2M2       0.504000
     36 H8           5.6840    -1.4570    -0.8020 h4         1 2M2       0.019100
     37 H9           3.8140    -2.8700    -1.7510 ha         1 2M2       0.133000
     38 H10          1.5850    -3.4620    -1.5520 hn         1 2M2       0.514000
     39 H11         -0.4380    -0.8810     0.3990 ha         1 2M2       0.165000
     40 H12         -4.0480    -2.2700     0.6980 hc         1 2M2       0.060700
     41 H13         -3.1300    -0.8390     1.1360 hc         1 2M2       0.060700
     42 H14         -3.4320     0.0650    -1.1900 hc         1 2M2       0.052700
     43 H15         -4.3610    -1.3570    -1.6240 hc         1 2M2       0.052700
     44 H16         -6.6680    -1.7060    -0.7370 ha         1 2M2       0.110500
     45 H17         -8.7260    -0.6270     0.1490 ha         1 2M2       0.113000
     46 H18         -8.6110     1.6560     1.1470 ha         1 2M2       0.113000
     47 H19         -6.4290     2.8580     1.2560 ha         1 2M2       0.113000
     48 H20         -4.3680     1.7850     0.3720 ha         1 2M2       0.110500
     49 H21         -2.8590    -3.9050    -1.2520 hn         1 2M2       0.371000
@<TRIPOS>BOND
     1     1     2 1   
     2     1    29 1   
     3     1    30 1   
     4     1    31 1   
     5     2     3 1   
     6     2    28 2   
     7     3     4 2   
     8     3    32 1   
     9     4     5 1   
    10     4    27 1   
    11     5     6 1   
    12     5    33 1   
    13     5    34 1   
    14     6     7 1   
    15     6    35 1   
    16     7     8 ar  
    17     7    26 ar  
    18     8     9 ar  
    19     9    10 ar  
    20     9    36 1   
    21    10    11 ar  
    22    10    37 1   
    23    11    12 1   
    24    11    26 ar  
    25    12    13 1   
    26    12    38 1   
    27    13    14 1   
    28    13    25 2   
    29    14    15 2   
    30    14    39 1   
    31    15    16 1   
    32    15    24 1   
    33    16    17 1   
    34    16    40 1   
    35    16    41 1   
    36    17    18 1   
    37    17    42 1   
    38    17    43 1   
    39    18    19 ar  
    40    18    23 ar  
    41    19    20 ar  
    42    19    44 1   
    43    20    21 ar  
    44    20    45 1   
    45    21    22 ar  
    46    21    46 1   
    47    22    23 ar  
    48    22    47 1   
    49    23    48 1   
    50    24    25 1   
    51    24    49 1   
    52    27    28 1   
@<TRIPOS>SUBSTRUCTURE
     1 2M2         1 TEMP              0 ****  ****    0 ROOT
