@<TRIPOS>MOLECULE
2M2
   49    52     1     0     0
SMALL
abcg2


@<TRIPOS>ATOM
      1 C1           4.0160     5.9700    -0.4180 c3         1 2M2      -0.132400
      2 C2           4.0360     4.5350    -0.0320 cc         1 2M2       0.274300
      3 C3           3.8000     3.9730     1.2520 cc         1 2M2      -0.248000
      4 C4           3.9370     2.6430     1.0540 cd         1 2M2       0.144300
      5 C5           3.8150     1.4700     1.9710 c3         1 2M2       0.201500
      6 N6           2.8490     0.5030     1.5290 nu         1 2M2      -0.926100
      7 C7           3.1390    -0.5650     0.7500 ca         1 2M2       0.420900
      8 N8           4.4150    -0.8260     0.4850 nb         1 2M2      -0.268000
      9 C9           4.6330    -1.9160    -0.2510 ca         1 2M2       0.174900
     10 C10          3.6380    -2.7320    -0.7250 ca         1 2M2      -0.337000
     11 C11          2.3220    -2.3520    -0.3890 ca         1 2M2       0.432900
     12 N12          1.2840    -3.1060    -0.8210 nu         1 2M2      -0.889800
     13 C13         -0.0710    -2.9180    -0.6020 cc         1 2M2       0.506900
     14 C14         -0.7730    -1.8620     0.0140 cc         1 2M2      -0.214000
     15 C15         -2.0980    -2.2340    -0.0830 cd         1 2M2      -0.133300
     16 C16         -3.3360    -1.5200     0.3340 c3         1 2M2      -0.016100
     17 C17         -4.0900    -0.9080    -0.8590 c3         1 2M2      -0.030100
     18 C18         -5.2980    -0.1350    -0.4100 ca         1 2M2      -0.084300
     19 C19         -6.4890    -0.7920    -0.1050 ca         1 2M2      -0.106000
     20 C20         -7.5940    -0.0870     0.3510 ca         1 2M2      -0.108000
     21 C21         -7.5250     1.2910     0.5110 ca         1 2M2      -0.109000
     22 C22         -6.3450     1.9570     0.2090 ca         1 2M2      -0.108000
     23 C23         -5.2410     1.2470    -0.2460 ca         1 2M2      -0.106000
     24 N24         -2.1090    -3.4170    -0.7160 na         1 2M2      -0.001200
     25 N26         -0.8910    -3.8570    -1.0390 nd         1 2M2      -0.583800
     26 N27          2.0830    -1.2760     0.3410 nb         1 2M2      -0.313000
     27 O28          4.2270     2.4140    -0.2280 os         1 2M2      -0.052700
     28 N29          4.2840     3.6000    -0.9040 nd         1 2M2      -0.363300
     29 H1           3.0470     6.4140    -0.1880 hc         1 2M2       0.055367
     30 H2           4.7700     6.5260     0.1380 hc         1 2M2       0.055367
     31 H3           4.2100     6.0950    -1.4820 hc         1 2M2       0.055367
     32 H4           3.5590     4.4860     2.1680 ha         1 2M2       0.150000
     33 H5           4.7830     0.9810     2.0800 h1         1 2M2       0.082700
     34 H6           3.5280     1.8420     2.9540 h1         1 2M2       0.082700
     35 H7           1.8730     0.7290     1.6360 hn         1 2M2       0.504000
     36 H8           5.6700    -2.1450    -0.4720 h4         1 2M2       0.019100
     37 H9           3.8530    -3.6090    -1.3200 ha         1 2M2       0.133000
     38 H10          1.5150    -3.9320    -1.3510 hn         1 2M2       0.514000
     39 H11         -0.3790    -0.9690     0.4590 ha         1 2M2       0.165000
     40 H12         -4.0020    -2.1990     0.8750 hc         1 2M2       0.060700
     41 H13         -3.0620    -0.7290     1.0340 hc         1 2M2       0.060700
     42 H14         -3.4100    -0.2560    -1.4110 hc         1 2M2       0.052700
     43 H15         -4.3880    -1.7050    -1.5440 hc         1 2M2       0.052700
     44 H16         -6.5540    -1.8670    -0.2310 ha         1 2M2       0.110500
     45 H17         -8.5110    -0.6150     0.5820 ha         1 2M2       0.113000
     46 H18         -8.3870     1.8420     0.8650 ha         1 2M2       0.113000
     47 H19         -6.2820     3.0310     0.3250 ha         1 2M2       0.113000
     48 H20         -4.3250     1.7750    -0.4830 ha         1 2M2       0.110500
     49 H21         -2.9120    -3.9820    -0.9410 hn         1 2M2       0.371000
@<TRIPOS>BOND
     1     1     2 1   
     2     1    29 1   
     3     1    30 1   
     4     1    31 1   
     5     2     3 1   
     6     2    28 2   
     7     3     4 2   
     8     3    32 1   
     9     4     5 1   
    10     4    27 1   
    11     5     6 1   
    12     5    33 1   
    13     5    34 1   
    14     6     7 1   
    15     6    35 1   
    16     7     8 ar  
    17     7    26 ar  
    18     8     9 ar  
    19     9    10 ar  
    20     9    36 1   
    21    10    11 ar  
    22    10    37 1   
    23    11    12 1   
    24    11    26 ar  
    25    12    13 1   
    26    12    38 1   
    27    13    14 1   
    28    13    25 2   
    29    14    15 2   
    30    14    39 1   
    31    15    16 1   
    32    15    24 1   
    33    16    17 1   
    34    16    40 1   
    35    16    41 1   
    36    17    18 1   
    37    17    42 1   
    38    17    43 1   
    39    18    19 ar  
    40    18    23 ar  
    41    19    20 ar  
    42    19    44 1   
    43    20    21 ar  
    44    20    45 1   
    45    21    22 ar  
    46    21    46 1   
    47    22    23 ar  
    48    22    47 1   
    49    23    48 1   
    50    24    25 1   
    51    24    49 1   
    52    27    28 1   
@<TRIPOS>SUBSTRUCTURE
     1 2M2         1 TEMP              0 ****  ****    0 ROOT
