@<TRIPOS>MOLECULE
2M3
   48    52     1     0     0
SMALL
bcc


@<TRIPOS>ATOM
      1 C1          -3.3180     2.7980    -0.8510 ca         1 2M3      -0.279300
      2 C2          -4.7080     2.6600    -0.8380 ca         1 2M3       0.423200
      3 C4          -2.5140     1.7220    -0.5070 ca         1 2M3      -0.048000
      4 C5          -3.1390     0.5270    -0.1590 ca         1 2M3      -0.192100
      5 C6          -4.5540     0.5260    -0.1880 ca         1 2M3       0.439800
      6 C8          -3.8770    -1.5070     0.4450 cc         1 2M3      -0.033300
      7 C11         -1.3300    -1.2720     0.4400 c5         1 2M3      -0.001500
      8 C12         -0.5120    -0.5290     1.5010 c5         1 2M3      -0.090400
      9 C15         -0.4420    -1.1760    -0.8070 c5         1 2M3       0.102000
     10 C17          3.3210    -1.0170    -0.3870 cx         1 2M3      -0.279300
     11 C19          3.7200     0.3640     0.0120 ca         1 2M3       0.460600
     12 C21          5.2230     1.6790     1.1320 ca         1 2M3       0.410200
     13 C23          3.4390     2.7430    -0.0150 ca         1 2M3      -0.090000
     14 C24          3.0060     1.4860    -0.4070 ca         1 2M3      -0.236300
     15 N3          -5.3390     1.5390    -0.5110 nb         1 2M3      -0.684000
     16 N7          -4.9670    -0.7150     0.1800 na         1 2M3      -0.277100
     17 C9          -2.7260    -0.7860     0.2480 cd         1 2M3      -0.129400
     18 C10         -4.0730    -2.9170     0.8700 c3         1 2M3      -0.044900
     19 C13          0.9160    -0.9450     1.1880 c5         1 2M3       0.104000
     20 N14          0.9080    -1.0840    -0.2670 n          1 2M3      -0.482800
     21 O18          1.8810    -1.2860    -2.2810 o          1 2M3      -0.599100
     22 N20          4.8100     0.4740     0.7670 nb         1 2M3      -0.686000
     23 C22          4.5740     2.8500     0.7740 ca         1 2M3      -0.251300
     24 C25          3.7800    -2.1780     0.4590 cx         1 2M3      -0.088900
     25 C26          4.4150    -1.9340    -0.8640 cx         1 2M3      -0.088900
     26 H1          -2.8820     3.7470    -1.1310 ha         1 2M3       0.140000
     27 H2          -5.3350     3.5030    -1.1070 h4         1 2M3       0.019100
     28 H4          -1.4360     1.8250    -0.5160 ha         1 2M3       0.137000
     29 H11         -1.3650    -2.3250     0.7340 hc         1 2M3       0.053700
     30 H12         -0.6210     0.5520     1.3920 hc         1 2M3       0.057700
     31 H12A        -0.8070    -0.7930     2.5160 hc         1 2M3       0.057700
     32 H15         -0.5530    -2.0470    -1.4540 h1         1 2M3       0.059200
     33 H15A        -0.6720    -0.2930    -1.4100 h1         1 2M3       0.059200
     34 H21          6.1180     1.7150     1.7440 h4         1 2M3       0.018100
     35 H23          2.8960     3.6250    -0.3260 ha         1 2M3       0.137000
     36 H24          2.1310     1.3940    -1.0370 ha         1 2M3       0.151000
     37 HN7         -5.9290    -1.0040     0.2590 hn         1 2M3       0.310700
     38 H10         -4.5320    -3.5090     0.0760 hc         1 2M3       0.052700
     39 H10A        -3.1280    -3.3880     1.1310 hc         1 2M3       0.052700
     40 H10B        -4.7280    -2.9780     1.7410 hc         1 2M3       0.052700
     41 H13          1.6420    -0.2060     1.5200 h1         1 2M3       0.050700
     42 H13A         1.1650    -1.8970     1.6640 h1         1 2M3       0.050700
     43 H22          4.9490     3.8100     1.1010 ha         1 2M3       0.142000
     44 H25          4.3360    -1.9390     1.3550 hc         1 2M3       0.084700
     45 H25A         3.1030    -3.0190     0.5490 hc         1 2M3       0.084700
     46 H26          4.1880    -2.6040    -1.6830 hc         1 2M3       0.084700
     47 H26A         5.4170    -1.5230    -0.8790 hc         1 2M3       0.084700
     48 C16          1.9810    -1.1460    -1.0680 c          1 2M3       0.703100
@<TRIPOS>BOND
     1     1     2 ar  
     2     1     3 ar  
     3     1    26 1   
     4     2    15 ar  
     5     2    27 1   
     6     3     4 ar  
     7     3    28 1   
     8     4     5 ar  
     9     4    17 1   
    10     5    15 ar  
    11     5    16 1   
    12     6    16 1   
    13     6    17 2   
    14     6    18 1   
    15     7     8 1   
    16     7     9 1   
    17     7    17 1   
    18     7    29 1   
    19     8    19 1   
    20     8    30 1   
    21     8    31 1   
    22     9    20 1   
    23     9    32 1   
    24     9    33 1   
    25    10    11 1   
    26    10    24 1   
    27    10    25 1   
    28    10    48 1   
    29    11    14 ar  
    30    11    22 ar  
    31    12    22 ar  
    32    12    23 ar  
    33    12    34 1   
    34    13    14 ar  
    35    13    23 ar  
    36    13    35 1   
    37    14    36 1   
    38    16    37 1   
    39    18    38 1   
    40    18    39 1   
    41    18    40 1   
    42    19    20 1   
    43    19    41 1   
    44    19    42 1   
    45    20    48 1   
    46    21    48 2   
    47    23    43 1   
    48    24    25 1   
    49    24    44 1   
    50    24    45 1   
    51    25    46 1   
    52    25    47 1   
@<TRIPOS>SUBSTRUCTURE
     1 2M3         1 TEMP              0 ****  ****    0 ROOT
