@<TRIPOS>MOLECULE
2M3
   48    52     1     0     0
SMALL
No Charge or Current Charge


@<TRIPOS>ATOM
      1 C1          -3.4830     2.8940    -0.4760 ca         1 2M3      -0.196000
      2 C2          -4.8850     2.7250    -0.4630 ca         1 2M3       0.357900
      3 C4          -2.6520     1.7870    -0.2270 ca         1 2M3      -0.030000
      4 C5          -3.3070     0.5740     0.0190 ca         1 2M3      -0.126800
      5 C6          -4.6800     0.4820     0.0170 ca         1 2M3       0.374500
      6 C8          -3.8670    -1.6310     0.4800 cc         1 2M3      -0.033300
      7 C11         -1.3920    -1.3100     0.4500 c5         1 2M3      -0.001500
      8 C12         -0.6120    -0.5610     1.5600 c5         1 2M3      -0.090400
      9 C15         -0.5440    -0.9920    -0.8120 c5         1 2M3       0.102000
     10 C17          3.3190    -1.0060    -0.4050 cx         1 2M3      -0.279300
     11 C19          3.7760     0.3870    -0.0900 ca         1 2M3       0.395300
     12 C21          4.4150     1.9270     1.5250 ca         1 2M3       0.344900
     13 C23          4.4170     2.6210    -0.7950 ca         1 2M3      -0.072000
     14 C24          3.9820     1.3260    -1.1190 ca         1 2M3      -0.153000
     15 N3          -5.4890     1.5320    -0.2190 nb         1 2M3      -0.684000
     16 N7          -5.0100    -0.8300     0.2910 na         1 2M3      -0.327400
     17 C9          -2.8050    -0.7520     0.3090 cd         1 2M3      -0.129400
     18 C10         -3.9110    -3.1040     0.7950 c3         1 2M3      -0.044900
     19 C13          0.8520    -0.9440     1.2240 c5         1 2M3       0.104000
     20 N14          0.8270    -0.9710    -0.2570 n          1 2M3      -0.415800
     21 O18          1.8670    -1.0110    -2.3050 o          1 2M3      -0.599100
     22 N20          3.9960     0.6790     1.2130 nb         1 2M3      -0.686000
     23 C22          4.6360     2.9220     0.5580 ca         1 2M3      -0.168000
     24 C25          3.7070    -2.2230     0.4260 cx         1 2M3      -0.088900
     25 C26          4.3380    -2.0090    -0.9250 cx         1 2M3      -0.088900
     26 H1          -3.0570     3.8730    -0.6770 ha         1 2M3       0.122000
     27 H2          -5.5450     3.5710    -0.6540 h4         1 2M3       0.019100
     28 H4          -1.5690     1.8780    -0.2290 ha         1 2M3       0.119000
     29 H11         -1.3650    -2.3880     0.6450 hc         1 2M3       0.053700
     30 H12         -0.7500     0.5240     1.5040 hc         1 2M3       0.057700
     31 H12A        -0.9060    -0.8740     2.5680 hc         1 2M3       0.057700
     32 H15         -0.6680    -1.7610    -1.5860 h1         1 2M3       0.059200
     33 H15A        -0.7930    -0.0190    -1.2520 h1         1 2M3       0.059200
     34 H21          4.5810     2.1340     2.5810 h4         1 2M3       0.018100
     35 H23          4.5830     3.3670    -1.5700 ha         1 2M3       0.119000
     36 H24          3.8070     1.0500    -2.1550 ha         1 2M3       0.133000
     37 HN7         -5.9650    -1.1560     0.3460 hn         1 2M3       0.361000
     38 H10         -3.4110    -3.6860     0.0120 hc         1 2M3       0.052700
     39 H10A        -3.4130    -3.3140     1.7490 hc         1 2M3       0.052700
     40 H10B        -4.9440    -3.4640     0.8710 hc         1 2M3       0.052700
     41 H13          1.5550    -0.2070     1.6280 h1         1 2M3       0.050700
     42 H13A         1.1070    -1.9330     1.6270 h1         1 2M3       0.050700
     43 H22          4.9740     3.9090     0.8610 ha         1 2M3       0.124000
     44 H25          4.3330    -2.0760     1.3030 hc         1 2M3       0.084700
     45 H25A         2.9900    -3.0360     0.5190 hc         1 2M3       0.084700
     46 H26          4.0420    -2.6780    -1.7300 hc         1 2M3       0.084700
     47 H26A         5.3840    -1.7110    -0.9490 hc         1 2M3       0.084700
     48 C16          1.9670    -0.9970    -1.0850 c          1 2M3       0.636100
@<TRIPOS>BOND
     1     1     2 ar  
     2     1     3 ar  
     3     1    26 1   
     4     2    15 ar  
     5     2    27 1   
     6     3     4 ar  
     7     3    28 1   
     8     4     5 ar  
     9     4    17 1   
    10     5    15 ar  
    11     5    16 1   
    12     6    16 1   
    13     6    17 2   
    14     6    18 1   
    15     7     8 1   
    16     7     9 1   
    17     7    17 1   
    18     7    29 1   
    19     8    19 1   
    20     8    30 1   
    21     8    31 1   
    22     9    20 1   
    23     9    32 1   
    24     9    33 1   
    25    10    11 1   
    26    10    24 1   
    27    10    25 1   
    28    10    48 1   
    29    11    14 ar  
    30    11    22 ar  
    31    12    22 ar  
    32    12    23 ar  
    33    12    34 1   
    34    13    14 ar  
    35    13    23 ar  
    36    13    35 1   
    37    14    36 1   
    38    16    37 1   
    39    18    38 1   
    40    18    39 1   
    41    18    40 1   
    42    19    20 1   
    43    19    41 1   
    44    19    42 1   
    45    20    48 1   
    46    21    48 2   
    47    23    43 1   
    48    24    25 1   
    49    24    44 1   
    50    24    45 1   
    51    25    46 1   
    52    25    47 1   
@<TRIPOS>SUBSTRUCTURE
     1 2M3         1 TEMP              0 ****  ****    0 ROOT
