@<TRIPOS>MOLECULE
2M5
   30    30     1     0     0
SMALL
No Charge or Current Charge


@<TRIPOS>ATOM
      1 C1          48.7720   -24.8990    39.5340 c6         1 2M5       0.378300
      2 O1          49.1180   -26.1570    40.1510 os         1 2M5      -0.484000
      3 C2          49.9480   -24.3610    38.6430 c6         1 2M5       0.159300
      4 O2          49.5750   -23.2060    37.8540 oh         1 2M5      -0.713000
      5 C3          51.1500   -23.9740    39.5550 c6         1 2M5       0.135300
      6 O3          52.2020   -23.3730    38.7730 oh         1 2M5      -0.672000
      7 C4          50.7110   -22.9930    40.6860 c6         1 2M5       0.107300
      8 O4          51.8440   -22.6950    41.5360 oh         1 2M5      -0.732000
      9 C5          49.5170   -23.6180    41.4810 c6         1 2M5       0.153300
     10 O5          48.4310   -23.9420    40.5660 os         1 2M5      -0.449000
     11 C6          48.9560   -22.6740    42.6070 c3         1 2M5       0.178300
     12 O6          48.4420   -21.4330    42.0900 oh         1 2M5      -0.711000
     13 CAI         47.8510   -23.3350    43.4580 c3         1 2M5      -0.123100
     14 CAN         48.0570   -26.8390    40.8440 c3         1 2M5       0.152900
     15 H1          47.8970   -25.0500    38.8820 h2         1 2M5       0.087700
     16 H2          50.2680   -25.1770    37.9790 h1         1 2M5       0.063700
     17 HO2         50.4400   -22.7710    37.6510 ho         1 2M5       0.526000
     18 H3          51.5220   -24.8950    40.0310 h1         1 2M5       0.063700
     19 HO3         52.8160   -22.9840    39.4390 ho         1 2M5       0.465000
     20 H4          50.3450   -22.0680    40.2130 h1         1 2M5       0.078700
     21 HO4         51.6360   -21.8590    42.0170 ho         1 2M5       0.513000
     22 H5          49.8600   -24.5440    41.9670 h1         1 2M5       0.055700
     23 H61         49.7900   -22.4600    43.2890 h1         1 2M5       0.028700
     24 HO6         48.0210   -20.9590    42.8430 ho         1 2M5       0.501000
     25 HAI         47.5530   -22.6830    44.2880 hc         1 2M5       0.044700
     26 HAIA        46.9620   -23.5510    42.8520 hc         1 2M5       0.044700
     27 HAIB        48.2110   -24.2790    43.8840 hc         1 2M5       0.044700
     28 HAN         48.4190   -27.7920    41.2500 h1         1 2M5       0.034033
     29 HANA        47.6800   -26.2350    41.6790 h1         1 2M5       0.034033
     30 HANB        47.2220   -27.0530    40.1640 h1         1 2M5       0.034033
@<TRIPOS>BOND
     1     1     2 1   
     2     1     3 1   
     3     1    10 1   
     4     1    15 1   
     5     2    14 1   
     6     3     4 1   
     7     3     5 1   
     8     3    16 1   
     9     4    17 1   
    10     5     6 1   
    11     5     7 1   
    12     5    18 1   
    13     6    19 1   
    14     7     8 1   
    15     7     9 1   
    16     7    20 1   
    17     8    21 1   
    18     9    10 1   
    19     9    11 1   
    20     9    22 1   
    21    11    12 1   
    22    11    13 1   
    23    11    23 1   
    24    12    24 1   
    25    13    25 1   
    26    13    26 1   
    27    13    27 1   
    28    14    28 1   
    29    14    29 1   
    30    14    30 1   
@<TRIPOS>SUBSTRUCTURE
     1 2M5         1 TEMP              0 ****  ****    0 ROOT
