@<TRIPOS>MOLECULE
2M5
   30    30     1     0     0
SMALL
bcc


@<TRIPOS>ATOM
      1 C1          48.7970   -24.8580    39.6180 c6         1 2M5       0.331900
      2 O1          49.1530   -26.1020    40.1290 os         1 2M5      -0.437600
      3 C2          49.9640   -24.3700    38.7630 c6         1 2M5       0.136100
      4 O2          49.4880   -23.2860    38.0040 oh         1 2M5      -0.590800
      5 C3          51.1320   -23.9620    39.6560 c6         1 2M5       0.112100
      6 O3          52.1270   -23.4200    38.8200 oh         1 2M5      -0.609800
      7 C4          50.6660   -22.9700    40.7150 c6         1 2M5       0.084100
      8 O4          51.7750   -22.6920    41.5420 oh         1 2M5      -0.609800
      9 C5          49.5120   -23.6010    41.5030 c6         1 2M5       0.130100
     10 O5          48.4610   -23.9360    40.6110 os         1 2M5      -0.402600
     11 C6          48.9480   -22.7080    42.5990 c3         1 2M5       0.155100
     12 O6          48.5360   -21.4900    42.0160 oh         1 2M5      -0.588800
     13 CAI         47.8190   -23.3890    43.3620 c3         1 2M5      -0.123100
     14 CAN         48.1110   -26.7760    40.8020 c3         1 2M5       0.129700
     15 H1          47.8930   -24.9430    38.9960 h2         1 2M5       0.087700
     16 H2          50.2810   -25.1960    38.1110 h1         1 2M5       0.063700
     17 HO2         50.2470   -22.8660    37.5860 ho         1 2M5       0.427000
     18 H3          51.5030   -24.8610    40.1710 h1         1 2M5       0.063700
     19 HO3         52.7960   -23.0050    39.3760 ho         1 2M5       0.426000
     20 H4          50.3110   -22.0610    40.2160 h1         1 2M5       0.078700
     21 HO4         51.6660   -21.8180    41.9260 ho         1 2M5       0.414000
     22 H5          49.8940   -24.5000    42.0070 h1         1 2M5       0.055700
     23 H61         49.7700   -22.5400    43.3090 h1         1 2M5       0.028700
     24 HO6         48.2520   -20.9000    42.7200 ho         1 2M5       0.402000
     25 HAI         47.4870   -22.7610    44.1910 hc         1 2M5       0.044700
     26 HAIA        46.9590   -23.5870    42.7230 hc         1 2M5       0.044700
     27 HAIB        48.1550   -24.3360    43.7880 hc         1 2M5       0.044700
     28 HAN         48.4530   -27.7910    40.9960 h1         1 2M5       0.034033
     29 HANA        47.8560   -26.3090    41.7570 h1         1 2M5       0.034033
     30 HANB        47.2030   -26.8260    40.1910 h1         1 2M5       0.034033
@<TRIPOS>BOND
     1     1     2 1   
     2     1     3 1   
     3     1    10 1   
     4     1    15 1   
     5     2    14 1   
     6     3     4 1   
     7     3     5 1   
     8     3    16 1   
     9     4    17 1   
    10     5     6 1   
    11     5     7 1   
    12     5    18 1   
    13     6    19 1   
    14     7     8 1   
    15     7     9 1   
    16     7    20 1   
    17     8    21 1   
    18     9    10 1   
    19     9    11 1   
    20     9    22 1   
    21    11    12 1   
    22    11    13 1   
    23    11    23 1   
    24    12    24 1   
    25    13    25 1   
    26    13    26 1   
    27    13    27 1   
    28    14    28 1   
    29    14    29 1   
    30    14    30 1   
@<TRIPOS>SUBSTRUCTURE
     1 2M5         1 TEMP              0 ****  ****    0 ROOT
