@<TRIPOS>MOLECULE
2M6
   90    93     1     0     0
SMALL
No Charge or Current Charge


@<TRIPOS>ATOM
      1 C1           4.6070    -0.1250    -0.7430 c6         1 2M6       0.355300
      2 O1           4.0370    -0.9020     0.3310 os         1 2M6      -0.471000
      3 C2           6.0540     0.3540    -0.3660 c6         1 2M6       0.126300
      4 O2           6.7250     1.0350    -1.4600 oh         1 2M6      -0.689000
      5 C3           5.9620     1.3190     0.8530 c6         1 2M6       0.141300
      6 O3           7.2700     1.8270     1.1740 oh         1 2M6      -0.651000
      7 C4           4.9870     2.4970     0.5480 c6         1 2M6       0.152300
      8 O4           4.8760     3.3460     1.7090 oh         1 2M6      -0.723000
      9 C5           3.5980     1.9410     0.1010 c6         1 2M6       0.136300
     10 O5           3.7640     1.0180    -1.0170 os         1 2M6      -0.480000
     11 C6           2.6310     3.0730    -0.3860 c3         1 2M6       0.183300
     12 O6           3.0040     3.5040    -1.7030 oh         1 2M6      -0.716000
     13 CAL         -4.0230     2.0080    -1.3120 c6         1 2M6       0.133300
     14 CAM         -3.2280     1.0110    -0.4140 c6         1 2M6       0.187300
     15 CAN         -4.1890     0.3710     0.6510 c6         1 2M6       0.129300
     16 CAO         -4.8840     1.5260     1.4590 c6         1 2M6       0.352300
     17 OAP         -5.5640     2.4390     0.5750 os         1 2M6      -0.462000
     18 CAQ         -4.7210     3.0850    -0.4250 c6         1 2M6       0.146300
     19 CAR         -5.6120     4.0600    -1.2640 c3         1 2M6       0.167600
     20 OAS         -2.5460     0.0450    -1.2690 os         1 2M6      -0.469000
     21 OAT         -5.1640    -0.5060     0.0270 oh         1 2M6      -0.700000
     22 CAU         -1.9050    -3.4620    -1.8740 c6         1 2M6       0.105300
     23 CAV         -1.1390    -2.3240    -2.6090 c6         1 2M6       0.176300
     24 CAW         -0.4940    -1.3350    -1.5860 c6         1 2M6       0.162300
     25 CAX         -1.5960    -0.8100    -0.5980 c6         1 2M6       0.352300
     26 OAY         -2.3120    -1.9170    -0.0070 os         1 2M6      -0.452000
     27 CAZ         -2.9710    -2.7990    -0.9520 c6         1 2M6       0.141300
     28 CBA         -3.8340    -3.8020    -0.1290 c3         1 2M6       0.168600
     29 OBC         -0.1730    -2.9080    -3.5060 oh         1 2M6      -0.713000
     30 OBD         -4.7740    -3.1280     0.7320 oh         1 2M6      -0.708000
     31 OBE          0.6310    -1.9620    -0.8970 os         1 2M6      -0.466000
     32 OBF         -6.3060     5.0360    -0.4610 oh         1 2M6      -0.708000
     33 CBH          2.1010    -2.1110     2.3740 c6         1 2M6       0.104300
     34 CBI          2.6890    -2.8330     1.1270 c6         1 2M6       0.179300
     35 CBJ          2.9490    -1.8090    -0.0230 c6         1 2M6       0.165300
     36 CBK          1.6110    -1.0610    -0.3390 c6         1 2M6       0.351300
     37 OBL          1.0830    -0.4530     0.8610 os         1 2M6      -0.457000
     38 CBM          0.7960    -1.3650     1.9540 c6         1 2M6       0.138300
     39 CBN          0.1630    -0.5310     3.1160 c3         1 2M6       0.170600
     40 OBP          3.8770    -3.5500     1.5170 oh         1 2M6      -0.713000
     41 OBQ         -0.9910     0.2260     2.7070 oh         1 2M6      -0.706000
     42 OBS         -3.9530     2.2930     2.2180 oh         1 2M6      -0.674000
     43 CBT          1.1490     2.6500    -0.4380 c3         1 2M6      -0.127100
     44 H1           4.6770    -0.7510    -1.6450 h2         1 2M6       0.069700
     45 H2           6.6350    -0.5310    -0.0650 h1         1 2M6       0.052700
     46 HO2          6.8160     0.3910    -2.2010 ho         1 2M6       0.502000
     47 H3           5.5640     0.7540     1.7100 h1         1 2M6       0.055700
     48 HO3          7.7330     1.8730     0.3050 ho         1 2M6       0.445000
     49 H4           5.4020     3.0720    -0.2930 h1         1 2M6       0.081700
     50 HO4          5.7880     3.3810     2.0880 ho         1 2M6       0.520000
     51 H5           3.1280     1.4160     0.9460 h1         1 2M6       0.069700
     52 H6           2.7060     3.9100     0.3240 h1         1 2M6       0.089700
     53 HO6          3.3760     2.6890    -2.1190 ho         1 2M6       0.508000
     54 HAL         -4.8140     1.4380    -1.8230 h1         1 2M6       0.065700
     55 HAM         -2.4610     1.5880     0.1240 h1         1 2M6       0.086700
     56 HAN         -3.5830    -0.1980     1.3700 h1         1 2M6       0.079700
     57 HAO         -5.6220     1.0770     2.1430 h2         1 2M6       0.060700
     58 HAQ         -3.9530     3.6880     0.0810 h1         1 2M6       0.069700
     59 HAR         -4.9720     4.5710    -1.9950 h1         1 2M6       0.025200
     60 HARA        -6.3360     3.4580    -1.8310 h1         1 2M6       0.025200
     61 HOAT        -4.9060    -1.4400     0.2710 ho         1 2M6       0.501000
     62 HAU         -1.1910    -4.0090    -1.2380 h1         1 2M6       0.061700
     63 HAV         -1.8770    -1.7540    -3.1950 h1         1 2M6       0.069700
     64 HAW         -0.1140    -0.4770    -2.1580 h1         1 2M6       0.072700
     65 HAX         -1.1060    -0.2300     0.1950 h2         1 2M6       0.115700
     66 HAZ         -3.6600    -2.2090    -1.5750 h1         1 2M6       0.071700
     67 HBA         -4.3720    -4.4570    -0.8250 h1         1 2M6       0.022700
     68 HBAA        -3.1590    -4.4310     0.4680 h1         1 2M6       0.022700
     69 HOBC        -0.6230    -3.7270    -3.8270 ho         1 2M6       0.516000
     70 HOBD        -5.1910    -3.8240     1.2930 ho         1 2M6       0.502000
     71 HOBF        -6.8880     5.5470    -1.0710 ho         1 2M6       0.502000
     72 HBH          2.8300    -1.3560     2.7080 h1         1 2M6       0.061700
     73 HBI          1.9340    -3.5510     0.7690 h1         1 2M6       0.065700
     74 HBJ          3.2460    -2.3760    -0.9170 h1         1 2M6       0.074700
     75 HBK          1.8220    -0.2800    -1.0820 h2         1 2M6       0.093700
     76 HBM          0.0480    -2.1010     1.6220 h1         1 2M6       0.082700
     77 HBN         -0.1140    -1.2180     3.9260 h1         1 2M6       0.023200
     78 HBNA         0.9330     0.1460     3.5090 h1         1 2M6       0.023200
     79 HOBP         3.6700    -3.8550     2.4330 ho         1 2M6       0.517000
     80 HOBQ        -1.2600     0.7810     3.4740 ho         1 2M6       0.506000
     81 HBT          0.8120     2.3090     0.5480 hc         1 2M6       0.044367
     82 HBTA         0.5170     3.4970    -0.7340 hc         1 2M6       0.044367
     83 HBTB         0.9920     1.8390    -1.1570 hc         1 2M6       0.044367
     84 H44         -4.4810     3.0260     2.5990 ho         1 2M6       0.459000
     85 OBO          1.8750    -3.0780     3.4280 oh         1 2M6      -0.727000
     86 OBB         -2.4890    -4.3570    -2.8500 oh         1 2M6      -0.727000
     87 OBG         -3.1520     2.6000    -2.3000 oh         1 2M6      -0.714000
     88 HOBB        -2.7040    -5.2040    -2.3910 ho         1 2M6       0.507000
     89 HOBG        -2.6270     1.8510    -2.6680 ho         1 2M6       0.505000
     90 HOBO         1.8040    -2.5860     4.2800 ho         1 2M6       0.509000
@<TRIPOS>BOND
     1     1     2 1   
     2     1     3 1   
     3     1    10 1   
     4     1    44 1   
     5     2    35 1   
     6     3     4 1   
     7     3     5 1   
     8     3    45 1   
     9     4    46 1   
    10     5     6 1   
    11     5     7 1   
    12     5    47 1   
    13     6    48 1   
    14     7     8 1   
    15     7     9 1   
    16     7    49 1   
    17     8    50 1   
    18     9    10 1   
    19     9    11 1   
    20     9    51 1   
    21    11    12 1   
    22    11    43 1   
    23    11    52 1   
    24    12    53 1   
    25    13    14 1   
    26    13    18 1   
    27    13    54 1   
    28    13    87 1   
    29    14    15 1   
    30    14    20 1   
    31    14    55 1   
    32    15    16 1   
    33    15    21 1   
    34    15    56 1   
    35    16    17 1   
    36    16    42 1   
    37    16    57 1   
    38    17    18 1   
    39    18    19 1   
    40    18    58 1   
    41    19    32 1   
    42    19    59 1   
    43    19    60 1   
    44    20    25 1   
    45    21    61 1   
    46    22    23 1   
    47    22    27 1   
    48    22    62 1   
    49    22    86 1   
    50    23    24 1   
    51    23    29 1   
    52    23    63 1   
    53    24    25 1   
    54    24    31 1   
    55    24    64 1   
    56    25    26 1   
    57    25    65 1   
    58    26    27 1   
    59    27    28 1   
    60    27    66 1   
    61    28    30 1   
    62    28    67 1   
    63    28    68 1   
    64    29    69 1   
    65    30    70 1   
    66    31    36 1   
    67    32    71 1   
    68    33    34 1   
    69    33    38 1   
    70    33    72 1   
    71    33    85 1   
    72    34    35 1   
    73    34    40 1   
    74    34    73 1   
    75    35    36 1   
    76    35    74 1   
    77    36    37 1   
    78    36    75 1   
    79    37    38 1   
    80    38    39 1   
    81    38    76 1   
    82    39    41 1   
    83    39    77 1   
    84    39    78 1   
    85    40    79 1   
    86    41    80 1   
    87    42    84 1   
    88    43    81 1   
    89    43    82 1   
    90    43    83 1   
    91    85    90 1   
    92    86    88 1   
    93    87    89 1   
@<TRIPOS>SUBSTRUCTURE
     1 2M6         1 TEMP              0 ****  ****    0 ROOT
