@<TRIPOS>MOLECULE
2M6
   90    93     1     0     0
SMALL
bcc


@<TRIPOS>ATOM
      1 C1           4.4340    -0.1610    -0.8280 c6         1 2M6       0.308900
      2 O1           3.7930    -0.7720     0.2450 os         1 2M6      -0.424600
      3 C2           5.8450     0.2100    -0.3590 c6         1 2M6       0.103100
      4 O2           6.6210     0.6580    -1.4400 oh         1 2M6      -0.566800
      5 C3           5.7510     1.3370     0.6660 c6         1 2M6       0.118100
      6 O3           7.0180     1.8080     1.0650 oh         1 2M6      -0.588800
      7 C4           4.9770     2.5170     0.0870 c6         1 2M6       0.129100
      8 O4           4.7590     3.5090     1.0620 oh         1 2M6      -0.600800
      9 C5           3.6050     2.0380    -0.3890 c6         1 2M6       0.113100
     10 O5           3.7490     0.9640    -1.3060 os         1 2M6      -0.433600
     11 C6           2.8000     3.1320    -1.0920 c3         1 2M6       0.160100
     12 O6           3.4730     3.6360    -2.2260 oh         1 2M6      -0.593800
     13 CAL         -3.6100     2.0380    -0.7600 c6         1 2M6       0.110100
     14 CAM         -3.6070     0.6200    -0.2070 c6         1 2M6       0.164100
     15 CAN         -5.0130     0.0330    -0.1980 c6         1 2M6       0.106100
     16 CAO         -5.9500     0.9770     0.5580 c6         1 2M6       0.305900
     17 OAP         -5.9100     2.2670     0.0160 os         1 2M6      -0.415600
     18 CAQ         -4.6350     2.8870     0.0060 c6         1 2M6       0.123100
     19 CAR         -4.8030     4.2500    -0.6290 c3         1 2M6       0.144400
     20 OAS         -2.7340    -0.1630    -0.9890 os         1 2M6      -0.422600
     21 OAT         -5.4310    -0.1080    -1.5320 oh         1 2M6      -0.577800
     22 CAU         -1.7750    -3.4540    -1.5420 c6         1 2M6       0.082100
     23 CAV         -1.1910    -2.2530    -2.2810 c6         1 2M6       0.153100
     24 CAW         -0.6610    -1.2300    -1.2890 c6         1 2M6       0.139100
     25 CAX         -1.7590    -0.8640    -0.2870 c6         1 2M6       0.305900
     26 OAY         -2.2710    -2.0040     0.3380 os         1 2M6      -0.405600
     27 CAZ         -2.8260    -2.9780    -0.5310 c6         1 2M6       0.118100
     28 CBA         -3.3310    -4.1100     0.3350 c3         1 2M6       0.145400
     29 OBC         -0.1510    -2.6210    -3.1480 oh         1 2M6      -0.590800
     30 OBD         -4.3550    -3.6240     1.1700 oh         1 2M6      -0.585800
     31 OBE          0.4510    -1.7960    -0.6300 os         1 2M6      -0.419600
     32 OBF         -5.6350     5.0420     0.1840 oh         1 2M6      -0.585800
     33 CBH          2.2160    -1.8550     2.3940 c6         1 2M6       0.081100
     34 CBI          2.6240    -2.6200     1.1370 c6         1 2M6       0.156100
     35 CBJ          2.7370    -1.6620    -0.0380 c6         1 2M6       0.142100
     36 CBK          1.4220    -0.8940    -0.2020 c6         1 2M6       0.304900
     37 OBL          1.0810    -0.2390     0.9800 os         1 2M6      -0.410600
     38 CBM          0.9260    -1.0710     2.1200 c6         1 2M6       0.115100
     39 CBN          0.5520    -0.1720     3.2780 c3         1 2M6       0.147400
     40 OBP          3.8490    -3.2860     1.2940 oh         1 2M6      -0.590800
     41 OBQ         -0.7180     0.3840     3.0390 oh         1 2M6      -0.583800
     42 OBS         -5.5890     0.9420     1.9030 oh         1 2M6      -0.611800
     43 CBT          1.3810     2.6880    -1.4250 c3         1 2M6      -0.127100
     44 H1           4.4880    -0.8480    -1.6840 h2         1 2M6       0.069700
     45 H2           6.2900    -0.6770     0.1120 h1         1 2M6       0.052700
     46 HO2          6.7990    -0.0880    -2.0210 ho         1 2M6       0.403000
     47 H3           5.1900     0.9610     1.5320 h1         1 2M6       0.055700
     48 HO3          7.3630     1.2260     1.7490 ho         1 2M6       0.406000
     49 H4           5.5320     2.9230    -0.7690 h1         1 2M6       0.081700
     50 HO4          5.6180     3.7890     1.3940 ho         1 2M6       0.421000
     51 H5           3.0300     1.7160     0.4900 h1         1 2M6       0.069700
     52 H6           2.7330     3.9670    -0.3910 h1         1 2M6       0.089700
     53 HO6          3.5910     2.9130    -2.8510 ho         1 2M6       0.409000
     54 HAL         -3.8950     2.0060    -1.8200 h1         1 2M6       0.065700
     55 HAM         -3.2520     0.6640     0.8310 h1         1 2M6       0.086700
     56 HAN         -5.0000    -0.9350     0.3200 h1         1 2M6       0.079700
     57 HAO         -6.9900     0.6510     0.4200 h2         1 2M6       0.060700
     58 HAQ         -4.2640     3.0220     1.0330 h1         1 2M6       0.069700
     59 HAR         -3.8100     4.7010    -0.7450 h1         1 2M6       0.025200
     60 HARA        -5.2170     4.1250    -1.6400 h1         1 2M6       0.025200
     61 HOAT        -6.2450    -0.6220    -1.5460 ho         1 2M6       0.402000
     62 HAU         -0.9680    -3.9670    -1.0040 h1         1 2M6       0.061700
     63 HAV         -2.0090    -1.7740    -2.8400 h1         1 2M6       0.069700
     64 HAW         -0.3600    -0.3180    -1.8220 h1         1 2M6       0.072700
     65 HAX         -1.3510    -0.2480     0.5200 h2         1 2M6       0.115700
     66 HAZ         -3.6760    -2.5560    -1.0870 h1         1 2M6       0.071700
     67 HBA         -3.6970    -4.9120    -0.3170 h1         1 2M6       0.022700
     68 HBAA        -2.4910    -4.5210     0.9120 h1         1 2M6       0.022700
     69 HOBC        -0.5160    -3.2320    -3.7960 ho         1 2M6       0.417000
     70 HOBD        -4.6770    -4.3570     1.7030 ho         1 2M6       0.403000
     71 HOBF        -5.6790     5.9210    -0.2040 ho         1 2M6       0.403000
     72 HBH          3.0170    -1.1510     2.6580 h1         1 2M6       0.061700
     73 HBI          1.8190    -3.3350     0.9070 h1         1 2M6       0.065700
     74 HBJ          2.9430    -2.2200    -0.9610 h1         1 2M6       0.074700
     75 HBK          1.5460    -0.1030    -0.9460 h2         1 2M6       0.093700
     76 HBM          0.1130    -1.7930     1.9590 h1         1 2M6       0.082700
     77 HBN          0.5570    -0.7710     4.1970 h1         1 2M6       0.023200
     78 HBNA         1.3260     0.6000     3.3910 h1         1 2M6       0.023200
     79 HOBP         3.7580    -3.8970     2.0330 ho         1 2M6       0.418000
     80 HOBQ        -0.9380     0.9560     3.7800 ho         1 2M6       0.407000
     81 HBT          0.8600     2.3370    -0.5340 hc         1 2M6       0.044367
     82 HBTA         0.8110     3.5230    -1.8340 hc         1 2M6       0.044367
     83 HBTB         1.3650     1.8810    -2.1610 hc         1 2M6       0.044367
     84 H44         -6.2620     1.3930     2.4230 ho         1 2M6       0.420000
     85 OBO          2.0230    -2.8070     3.4190 oh         1 2M6      -0.604800
     86 OBB         -2.3510    -4.3040    -2.5130 oh         1 2M6      -0.604800
     87 OBG         -2.3140     2.5670    -0.5980 oh         1 2M6      -0.591800
     88 HOBB        -2.2460    -5.2180    -2.2360 ho         1 2M6       0.408000
     89 HOBG        -2.0950     3.1020    -1.3630 ho         1 2M6       0.406000
     90 HOBO         2.2630    -2.4160     4.2630 ho         1 2M6       0.410000
@<TRIPOS>BOND
     1     1     2 1   
     2     1     3 1   
     3     1    10 1   
     4     1    44 1   
     5     2    35 1   
     6     3     4 1   
     7     3     5 1   
     8     3    45 1   
     9     4    46 1   
    10     5     6 1   
    11     5     7 1   
    12     5    47 1   
    13     6    48 1   
    14     7     8 1   
    15     7     9 1   
    16     7    49 1   
    17     8    50 1   
    18     9    10 1   
    19     9    11 1   
    20     9    51 1   
    21    11    12 1   
    22    11    43 1   
    23    11    52 1   
    24    12    53 1   
    25    13    14 1   
    26    13    18 1   
    27    13    54 1   
    28    13    87 1   
    29    14    15 1   
    30    14    20 1   
    31    14    55 1   
    32    15    16 1   
    33    15    21 1   
    34    15    56 1   
    35    16    17 1   
    36    16    42 1   
    37    16    57 1   
    38    17    18 1   
    39    18    19 1   
    40    18    58 1   
    41    19    32 1   
    42    19    59 1   
    43    19    60 1   
    44    20    25 1   
    45    21    61 1   
    46    22    23 1   
    47    22    27 1   
    48    22    62 1   
    49    22    86 1   
    50    23    24 1   
    51    23    29 1   
    52    23    63 1   
    53    24    25 1   
    54    24    31 1   
    55    24    64 1   
    56    25    26 1   
    57    25    65 1   
    58    26    27 1   
    59    27    28 1   
    60    27    66 1   
    61    28    30 1   
    62    28    67 1   
    63    28    68 1   
    64    29    69 1   
    65    30    70 1   
    66    31    36 1   
    67    32    71 1   
    68    33    34 1   
    69    33    38 1   
    70    33    72 1   
    71    33    85 1   
    72    34    35 1   
    73    34    40 1   
    74    34    73 1   
    75    35    36 1   
    76    35    74 1   
    77    36    37 1   
    78    36    75 1   
    79    37    38 1   
    80    38    39 1   
    81    38    76 1   
    82    39    41 1   
    83    39    77 1   
    84    39    78 1   
    85    40    79 1   
    86    41    80 1   
    87    42    84 1   
    88    43    81 1   
    89    43    82 1   
    90    43    83 1   
    91    85    90 1   
    92    86    88 1   
    93    87    89 1   
@<TRIPOS>SUBSTRUCTURE
     1 2M6         1 TEMP              0 ****  ****    0 ROOT
