@<TRIPOS>MOLECULE
2M7
   31    32     1     0     0
SMALL
No Charge or Current Charge


@<TRIPOS>ATOM
      1 CAI          3.4770     0.5060     1.1740 ca         1 2M7      -0.087000
      2 CAJ          4.8770     0.4230     1.0710 ca         1 2M7      -0.112500
      3 CAK          5.4670    -0.1120    -0.0880 ca         1 2M7      -0.100000
      4 CAL          4.6560    -0.5640    -1.1430 ca         1 2M7      -0.112500
      5 CAM          3.2560    -0.4820    -1.0410 ca         1 2M7      -0.087000
      6 CAH          2.6630     0.0540     0.1180 ca         1 2M7       0.022000
      7 CAG          1.2350     0.1390     0.2220 cg         1 2M7      -0.103000
      8 CAF          0.0250     0.2100     0.3010 c1         1 2M7      -0.155100
      9 CAD         -1.4470     0.2980     0.3470 c5         1 2M7       0.228600
     10 NAE         -2.0300    -0.9880     0.8110 n7         1 2M7      -0.853400
     11 CAA         -3.2560    -1.2050    -0.0130 c5         1 2M7       0.176500
     12 CAN         -4.4210    -1.7740     0.8250 c3         1 2M7      -0.071100
     13 CAB         -3.5570     0.1490    -0.7560 c5         1 2M7       0.173300
     14 OAO         -4.2450     1.1270     0.0420 oh         1 2M7      -0.642000
     15 CAC         -2.0950     0.5860    -1.0520 c5         1 2M7       0.109300
     16 OAP         -2.0110     1.9610    -1.4700 oh         1 2M7      -0.654000
     17 H1           3.0260     0.9210     2.0730 ha         1 2M7       0.119000
     18 H2           5.5040     0.7730     1.8880 ha         1 2M7       0.116000
     19 H3           6.5500    -0.1760    -0.1670 ha         1 2M7       0.115000
     20 H4           5.1120    -0.9780    -2.0400 ha         1 2M7       0.116000
     21 H5           2.6340    -0.8330    -1.8620 ha         1 2M7       0.119000
     22 H6          -1.7000     1.1050     1.0520 h1         1 2M7       0.101700
     23 H7          -1.3630    -1.7410     0.6040 hn         1 2M7       0.423000
     24 H9          -3.0200    -1.9610    -0.7760 h1         1 2M7       0.022700
     25 H10         -4.6890    -1.1010     1.6490 hc         1 2M7       0.044033
     26 H11         -5.3130    -1.9190     0.2050 hc         1 2M7       0.044033
     27 H12         -4.1550    -2.7450     1.2590 hc         1 2M7       0.044033
     28 H13         -4.1120    -0.0330    -1.6870 h1         1 2M7       0.048700
     29 H14         -3.8720     1.9880    -0.2560 ho         1 2M7       0.457000
     30 H15         -1.6590    -0.0690    -1.8210 h1         1 2M7       0.040700
     31 H16         -1.0610     2.1490    -1.6490 ho         1 2M7       0.459000
@<TRIPOS>BOND
     1     1     2 ar  
     2     1     6 ar  
     3     1    17 1   
     4     2     3 ar  
     5     2    18 1   
     6     3     4 ar  
     7     3    19 1   
     8     4     5 ar  
     9     4    20 1   
    10     5     6 ar  
    11     5    21 1   
    12     6     7 1   
    13     7     8 3   
    14     8     9 1   
    15     9    10 1   
    16     9    15 1   
    17     9    22 1   
    18    10    11 1   
    19    10    23 1   
    20    11    12 1   
    21    11    13 1   
    22    11    24 1   
    23    12    25 1   
    24    12    26 1   
    25    12    27 1   
    26    13    14 1   
    27    13    15 1   
    28    13    28 1   
    29    14    29 1   
    30    15    16 1   
    31    15    30 1   
    32    16    31 1   
@<TRIPOS>SUBSTRUCTURE
     1 2M7         1 TEMP              0 ****  ****    0 ROOT
