@<TRIPOS>MOLECULE
2M7
   31    32     1     0     0
SMALL
bcc


@<TRIPOS>ATOM
      1 CAI          3.4900     0.9180     0.7460 ca         1 2M7      -0.105000
      2 CAJ          4.8670     0.8230     0.6260 ca         1 2M7      -0.130500
      3 CAK          5.4350    -0.1850    -0.1430 ca         1 2M7      -0.118000
      4 CAL          4.6180    -1.1010    -0.7940 ca         1 2M7      -0.130500
      5 CAM          3.2390    -1.0120    -0.6810 ca         1 2M7      -0.105000
      6 CAH          2.6620    -0.0000     0.0930 ca         1 2M7       0.022000
      7 CAG          1.2440     0.0940     0.2170 cg         1 2M7      -0.103000
      8 CAF          0.0450     0.1710     0.3270 c1         1 2M7      -0.155100
      9 CAD         -1.3990     0.2760     0.4730 c5         1 2M7       0.228600
     10 NAE         -2.0550    -1.0110     0.7220 n7         1 2M7      -0.798200
     11 CAA         -3.1840    -1.1630    -0.2100 c5         1 2M7       0.176500
     12 CAN         -4.3410    -1.9120     0.4240 c3         1 2M7      -0.071100
     13 CAB         -3.4940     0.2610    -0.6530 c5         1 2M7       0.150100
     14 OAO         -4.2230     0.9220     0.3520 oh         1 2M7      -0.579800
     15 CAC         -2.0900     0.8350    -0.7930 c5         1 2M7       0.086100
     16 OAP         -2.1120     2.2280    -0.8800 oh         1 2M7      -0.591800
     17 H1           3.0490     1.7030     1.3460 ha         1 2M7       0.137000
     18 H2           5.4990     1.5390     1.1350 ha         1 2M7       0.134000
     19 H3           6.5110    -0.2570    -0.2350 ha         1 2M7       0.133000
     20 H4           5.0560    -1.8890    -1.3930 ha         1 2M7       0.134000
     21 H5           2.6040    -1.7260    -1.1890 ha         1 2M7       0.137000
     22 H6          -1.5980     0.9700     1.3000 h1         1 2M7       0.101700
     23 H7          -1.4090    -1.7820     0.6380 hn         1 2M7       0.367800
     24 H9          -2.8780    -1.7060    -1.1150 h1         1 2M7       0.022700
     25 H10         -4.6770    -1.4230     1.3360 hc         1 2M7       0.044033
     26 H11         -5.1850    -1.9840    -0.2640 hc         1 2M7       0.044033
     27 H12         -4.0380    -2.9290     0.6780 hc         1 2M7       0.044033
     28 H13         -4.0340     0.2670    -1.6090 h1         1 2M7       0.048700
     29 H14         -4.2730     1.8560     0.1240 ho         1 2M7       0.418000
     30 H15         -1.6230     0.3810    -1.6770 h1         1 2M7       0.040700
     31 H16         -1.2260     2.5460    -1.0810 ho         1 2M7       0.420000
@<TRIPOS>BOND
     1     1     2 ar  
     2     1     6 ar  
     3     1    17 1   
     4     2     3 ar  
     5     2    18 1   
     6     3     4 ar  
     7     3    19 1   
     8     4     5 ar  
     9     4    20 1   
    10     5     6 ar  
    11     5    21 1   
    12     6     7 1   
    13     7     8 3   
    14     8     9 1   
    15     9    10 1   
    16     9    15 1   
    17     9    22 1   
    18    10    11 1   
    19    10    23 1   
    20    11    12 1   
    21    11    13 1   
    22    11    24 1   
    23    12    25 1   
    24    12    26 1   
    25    12    27 1   
    26    13    14 1   
    27    13    15 1   
    28    13    28 1   
    29    14    29 1   
    30    15    16 1   
    31    15    30 1   
    32    16    31 1   
@<TRIPOS>SUBSTRUCTURE
     1 2M7         1 TEMP              0 ****  ****    0 ROOT
