@<TRIPOS>MOLECULE
2M8
   33    33     1     0     0
SMALL
No Charge or Current Charge


@<TRIPOS>ATOM
      1 C1          -0.0420    -0.7140    -0.6590 c6         1 2M8       0.364300
      2 O3A         -0.9000    -0.3360     0.4430 os         1 2M8      -0.471000
      3 C22         -2.0220     0.5550     0.1430 c3         1 2M8       0.022300
      4 C23         -2.6100     1.0660     1.4840 c3         1 2M8       0.182600
      5 O13         -3.1610     0.0000     2.2770 oh         1 2M8      -0.694000
      6 C21         -3.1440    -0.0730    -0.7560 c          1 2M8       0.718000
      7 O1A         -3.0950    -1.2610    -1.0540 o          1 2M8      -0.726500
      8 O1B         -3.9920     0.6830    -1.2170 o          1 2M8      -0.726500
      9 C2           0.9910    -1.8140    -0.2160 c6         1 2M8       0.120300
     10 O2           1.7790    -2.3320    -1.3240 oh         1 2M8      -0.717000
     11 C3           1.9520    -1.2040     0.8480 c6         1 2M8       0.141300
     12 O3           2.9570    -2.1710     1.2050 oh         1 2M8      -0.672000
     13 C4           2.6230     0.0960     0.3030 c6         1 2M8       0.144300
     14 O4           3.4770     0.6620     1.3190 oh         1 2M8      -0.733000
     15 C5           1.5260     1.0980    -0.1760 c6         1 2M8       0.178300
     16 C6           2.1400     2.3820    -0.8300 c3         1 2M8       0.169600
     17 O6           1.1500     3.3090    -1.3210 oh         1 2M8      -0.701000
     18 O5           0.6500     0.4600    -1.1490 os         1 2M8      -0.467000
     19 H1          -0.6560    -1.1320    -1.4710 h2         1 2M8       0.103700
     20 H2           0.4270    -2.6330     0.2560 h1         1 2M8       0.061700
     21 H22         -1.6540     1.4360    -0.3980 h1         1 2M8       0.044700
     22 H231        -1.8140     1.5750     2.0440 h1         1 2M8       0.008700
     23 H232        -3.3850     1.8140     1.2730 h1         1 2M8       0.008700
     24 H13         -3.4250     0.3960     3.1380 ho         1 2M8       0.466000
     25 HA           1.1580    -2.7650    -1.9560 ho         1 2M8       0.505000
     26 H3           1.3570    -0.9380     1.7360 h1         1 2M8       0.067700
     27 HB           3.0960    -2.6860     0.3760 ho         1 2M8       0.442000
     28 H4           3.2310    -0.1750    -0.5740 h1         1 2M8       0.056700
     29 HC           3.8940    -0.1170     1.7620 ho         1 2M8       0.509000
     30 H5           0.9280     1.4180     0.6900 h1         1 2M8       0.067700
     31 H61C         2.7730     2.8810    -0.0840 h1         1 2M8       0.021700
     32 H62C         2.7960     2.0650    -1.6520 h1         1 2M8       0.021700
     33 H6           1.6380     4.0350    -1.7720 ho         1 2M8       0.486000
@<TRIPOS>BOND
     1     1     2 1   
     2     1     9 1   
     3     1    18 1   
     4     1    19 1   
     5     2     3 1   
     6     3     4 1   
     7     3     6 1   
     8     3    21 1   
     9     4     5 1   
    10     4    22 1   
    11     4    23 1   
    12     5    24 1   
    13     6     7 1   
    14     6     8 1   
    15     9    10 1   
    16     9    11 1   
    17     9    20 1   
    18    10    25 1   
    19    11    12 1   
    20    11    13 1   
    21    11    26 1   
    22    12    27 1   
    23    13    14 1   
    24    13    15 1   
    25    13    28 1   
    26    14    29 1   
    27    15    16 1   
    28    15    18 1   
    29    15    30 1   
    30    16    17 1   
    31    16    31 1   
    32    16    32 1   
    33    17    33 1   
@<TRIPOS>SUBSTRUCTURE
     1 2M8         1 TEMP              0 ****  ****    0 ROOT
