@<TRIPOS>MOLECULE
2M8
   33    33     1     0     0
SMALL
abcg2


@<TRIPOS>ATOM
      1 C1          -0.0300    -0.6000    -0.7550 c6         1 2M8       0.364300
      2 O3A         -0.8630    -0.3740     0.3300 os         1 2M8      -0.471000
      3 C22         -1.9690     0.4750     0.0880 c3         1 2M8       0.022300
      4 C23         -2.4410     1.0050     1.4240 c3         1 2M8       0.182600
      5 O13         -2.9710    -0.0570     2.1860 oh         1 2M8      -0.694000
      6 C21         -3.1230    -0.2240    -0.6710 c          1 2M8       0.718000
      7 O1A         -3.0010    -1.4300    -0.9440 o          1 2M8      -0.726500
      8 O1B         -4.0840     0.5220    -0.9460 o          1 2M8      -0.726500
      9 C2           0.9470    -1.7100    -0.3590 c6         1 2M8       0.120300
     10 O2           1.7230    -2.1050    -1.4630 oh         1 2M8      -0.717000
     11 C3           1.8840    -1.1850     0.7240 c6         1 2M8       0.141300
     12 O3           2.8920    -2.1090     1.0660 oh         1 2M8      -0.672000
     13 C4           2.5730     0.0970     0.2730 c6         1 2M8       0.144300
     14 O4           3.3030     0.6770     1.3310 oh         1 2M8      -0.733000
     15 C5           1.5250     1.1160    -0.1790 c6         1 2M8       0.178300
     16 C6           2.1680     2.3340    -0.8070 c3         1 2M8       0.169600
     17 O6           1.1680     3.2830    -1.0930 oh         1 2M8      -0.701000
     18 O5           0.6670     0.5510    -1.1520 os         1 2M8      -0.467000
     19 H1          -0.6010    -0.9020    -1.6420 h2         1 2M8       0.103700
     20 H2           0.3670    -2.5540     0.0420 h1         1 2M8       0.061700
     21 H22         -1.6540     1.3490    -0.4980 h1         1 2M8       0.044700
     22 H231        -1.5970     1.4860     1.9370 h1         1 2M8       0.008700
     23 H232        -3.1870     1.7820     1.2340 h1         1 2M8       0.008700
     24 H13         -3.3150     0.3050     3.0070 ho         1 2M8       0.466000
     25 HA           1.1500    -2.5440    -2.0980 ho         1 2M8       0.505000
     26 H3           1.2700    -0.9400     1.6010 h1         1 2M8       0.067700
     27 HB           2.5020    -2.8070     1.6010 ho         1 2M8       0.442000
     28 H4           3.2340    -0.1300    -0.5760 h1         1 2M8       0.056700
     29 HC           3.9450     0.0280     1.6350 ho         1 2M8       0.509000
     30 H5           0.9530     1.4360     0.7040 h1         1 2M8       0.067700
     31 H61C         2.9160     2.7330    -0.1120 h1         1 2M8       0.021700
     32 H62C         2.7050     2.0230    -1.7140 h1         1 2M8       0.021700
     33 H6           1.5910     4.0510    -1.4860 ho         1 2M8       0.486000
@<TRIPOS>BOND
     1     1     2 1   
     2     1     9 1   
     3     1    18 1   
     4     1    19 1   
     5     2     3 1   
     6     3     4 1   
     7     3     6 1   
     8     3    21 1   
     9     4     5 1   
    10     4    22 1   
    11     4    23 1   
    12     5    24 1   
    13     6     7 1   
    14     6     8 1   
    15     9    10 1   
    16     9    11 1   
    17     9    20 1   
    18    10    25 1   
    19    11    12 1   
    20    11    13 1   
    21    11    26 1   
    22    12    27 1   
    23    13    14 1   
    24    13    15 1   
    25    13    28 1   
    26    14    29 1   
    27    15    16 1   
    28    15    18 1   
    29    15    30 1   
    30    16    17 1   
    31    16    31 1   
    32    16    32 1   
    33    17    33 1   
@<TRIPOS>SUBSTRUCTURE
     1 2M8         1 TEMP              0 ****  ****    0 ROOT
