@<TRIPOS>MOLECULE
2M9
   39    42     1     0     0
SMALL
No Charge or Current Charge


@<TRIPOS>ATOM
      1 OAJ         -3.8430    -2.9780     1.1690 o          1 2M9      -0.713867
      2 SBD         -4.1050    -2.2570    -0.0860 s6         1 2M9       1.273100
      3 OAC         -3.7920    -2.9960    -1.3180 o          1 2M9      -0.713867
      4 OAD         -5.3450    -1.4670    -0.1170 o          1 2M9      -0.713867
      5 CAT         -2.7620    -0.9590    -0.0670 ca         1 2M9      -0.244500
      6 CAM         -3.1460     0.3960    -0.0850 ca         1 2M9       0.031000
      7 CAS         -2.2040     1.4420    -0.0740 ca         1 2M9      -0.237500
      8 SBC         -2.8360     3.1990    -0.1000 s6         1 2M9       1.271100
      9 OAA         -2.2290     3.7170    -1.3350 o          1 2M9      -0.710200
     10 OAB         -4.2970     3.0370    -0.1290 o          1 2M9      -0.710200
     11 OAI         -2.2800     3.7360     1.1520 o          1 2M9      -0.710200
     12 CAW         -0.8190     1.1190    -0.0420 ca         1 2M9       0.069000
     13 CAO          0.1730     2.1220    -0.0290 ca         1 2M9      -0.089000
     14 CAP          1.5330     1.8050     0.0020 ca         1 2M9      -0.103000
     15 CAX         -1.3760    -1.2800    -0.0360 ca         1 2M9       0.058000
     16 CBA         -0.4030    -0.2400    -0.0240 ca         1 2M9      -0.065000
     17 CBB          0.9900    -0.5610     0.0080 ca         1 2M9      -0.006000
     18 CAY          1.9740     0.4660     0.0210 ca         1 2M9       0.031000
     19 CAQ         -0.9310    -2.6200    -0.0170 ca         1 2M9      -0.078000
     20 CAR          0.4290    -2.9320     0.0140 ca         1 2M9      -0.129000
     21 CAZ          1.3990    -1.9150     0.0260 ca         1 2M9      -0.041000
     22 CAV          2.7700    -2.2510     0.0570 ca         1 2M9       0.081100
     23 OBF          3.1360    -3.5890     0.0750 os         1 2M9      -0.358100
     24 CAG          4.5060    -4.0250     0.1070 c3         1 2M9       0.161900
     25 CAN          3.7340    -1.2280     0.0700 ca         1 2M9      -0.138000
     26 CAU          3.3630     0.1370     0.0520 ca         1 2M9      -0.191500
     27 SBE          4.7170     1.4420     0.0710 s6         1 2M9       1.272100
     28 OAK          4.4580     2.1650    -1.1840 o          1 2M9      -0.709200
     29 OAE          4.4060     2.1840     1.3030 o          1 2M9      -0.709200
     30 OAF          5.9560     0.6490     0.1020 o          1 2M9      -0.709200
     31 H1          -4.2040     0.6420    -0.1090 ha         1 2M9       0.159000
     32 H2          -0.0800     3.1750    -0.0420 ha         1 2M9       0.136000
     33 H3           2.2280     2.6360     0.0100 ha         1 2M9       0.131000
     34 H4          -1.6220    -3.4550    -0.0250 ha         1 2M9       0.129000
     35 H5           0.7180    -3.9800     0.0280 ha         1 2M9       0.094000
     36 H6           5.0120    -3.6540     1.0080 h1         1 2M9       0.021367
     37 H7           4.5550    -5.1210     0.1160 h1         1 2M9       0.021367
     38 H8           5.0500    -3.6680    -0.7770 h1         1 2M9       0.021367
     39 H9           4.7870    -1.4850     0.0940 ha         1 2M9       0.122000
@<TRIPOS>BOND
     1     1     2 1   
     2     2     3 1   
     3     2     4 1   
     4     2     5 1   
     5     5     6 ar  
     6     5    15 ar  
     7     6     7 ar  
     8     6    31 1   
     9     7     8 1   
    10     7    12 ar  
    11     8     9 1   
    12     8    10 1   
    13     8    11 1   
    14    12    13 ar  
    15    12    16 ar  
    16    13    14 ar  
    17    13    32 1   
    18    14    18 ar  
    19    14    33 1   
    20    15    16 ar  
    21    15    19 ar  
    22    16    17 ar  
    23    17    18 ar  
    24    17    21 ar  
    25    18    26 ar  
    26    19    20 ar  
    27    19    34 1   
    28    20    21 ar  
    29    20    35 1   
    30    21    22 ar  
    31    22    23 1   
    32    22    25 ar  
    33    23    24 1   
    34    24    36 1   
    35    24    37 1   
    36    24    38 1   
    37    25    26 ar  
    38    25    39 1   
    39    26    27 1   
    40    27    28 1   
    41    27    29 1   
    42    27    30 1   
@<TRIPOS>SUBSTRUCTURE
     1 2M9         1 TEMP              0 ****  ****    0 ROOT
