@<TRIPOS>MOLECULE
2M9
   39    42     1     0     0
SMALL
bcc


@<TRIPOS>ATOM
      1 OAJ         -3.8320    -2.9630     1.1630 o          1 2M9      -0.713867
      2 SBD         -4.0200    -2.1930    -0.0780 s6         1 2M9       1.273100
      3 OAC         -3.7900    -2.9850    -1.2990 o          1 2M9      -0.713867
      4 OAD         -5.2860    -1.4420    -0.1080 o          1 2M9      -0.713867
      5 CAT         -2.7220    -0.9450    -0.0670 ca         1 2M9      -0.244500
      6 CAM         -3.1070     0.3830    -0.0950 ca         1 2M9       0.013000
      7 CAS         -2.1750     1.4050    -0.0830 ca         1 2M9      -0.237500
      8 SBC         -2.7930     3.0970    -0.1090 s6         1 2M9       1.271100
      9 OAA         -2.1810     3.7260    -1.2910 o          1 2M9      -0.710200
     10 OAB         -4.2560     2.9760    -0.2110 o          1 2M9      -0.710200
     11 OAI         -2.3480     3.6890     1.1650 o          1 2M9      -0.710200
     12 CAW         -0.8030     1.1150    -0.0400 ca         1 2M9       0.069000
     13 CAO          0.2080     2.1280    -0.0140 ca         1 2M9      -0.107000
     14 CAP          1.5220     1.8200     0.0170 ca         1 2M9      -0.121000
     15 CAX         -1.3620    -1.2890    -0.0310 ca         1 2M9       0.058000
     16 CBA         -0.3920    -0.2470    -0.0190 ca         1 2M9      -0.065000
     17 CBB          1.0030    -0.5680     0.0150 ca         1 2M9      -0.006000
     18 CAY          1.9790     0.4660     0.0280 ca         1 2M9       0.031000
     19 CAQ         -0.9050    -2.6460    -0.0080 ca         1 2M9      -0.096000
     20 CAR          0.4110    -2.9450     0.0220 ca         1 2M9      -0.147000
     21 CAZ          1.4050    -1.9240     0.0330 ca         1 2M9      -0.041000
     22 CAV          2.7750    -2.2380     0.0610 ca         1 2M9       0.081100
     23 OBF          3.0850    -3.5400     0.0770 os         1 2M9      -0.334900
     24 CAG          4.4480    -3.9240     0.0990 c3         1 2M9       0.138700
     25 CAN          3.7230    -1.2240     0.0680 ca         1 2M9      -0.156000
     26 CAU          3.3330     0.1040     0.0520 ca         1 2M9      -0.191500
     27 SBE          4.6440     1.3450     0.0580 s6         1 2M9       1.272100
     28 OAK          4.4470     2.1180    -1.1790 o          1 2M9      -0.709200
     29 OAE          4.4260     2.1290     1.2840 o          1 2M9      -0.709200
     30 OAF          5.9050     0.5850     0.0730 o          1 2M9      -0.709200
     31 H1          -4.1580     0.6260    -0.1280 ha         1 2M9       0.177000
     32 H2          -0.0710     3.1690    -0.0240 ha         1 2M9       0.154000
     33 H3           2.2320     2.6310     0.0350 ha         1 2M9       0.149000
     34 H4          -1.6150    -3.4570    -0.0170 ha         1 2M9       0.147000
     35 H5           0.7130    -3.9830     0.0380 ha         1 2M9       0.112000
     36 H6           4.9580    -3.5580     0.9930 h1         1 2M9       0.021367
     37 H7           4.4600    -5.0100     0.1070 h1         1 2M9       0.021367
     38 H8           4.9820    -3.5700    -0.7860 h1         1 2M9       0.021367
     39 H9           4.7780    -1.4540     0.0870 ha         1 2M9       0.140000
@<TRIPOS>BOND
     1     1     2 1   
     2     2     3 1   
     3     2     4 1   
     4     2     5 1   
     5     5     6 ar  
     6     5    15 ar  
     7     6     7 ar  
     8     6    31 1   
     9     7     8 1   
    10     7    12 ar  
    11     8     9 1   
    12     8    10 1   
    13     8    11 1   
    14    12    13 ar  
    15    12    16 ar  
    16    13    14 ar  
    17    13    32 1   
    18    14    18 ar  
    19    14    33 1   
    20    15    16 ar  
    21    15    19 ar  
    22    16    17 ar  
    23    17    18 ar  
    24    17    21 ar  
    25    18    26 ar  
    26    19    20 ar  
    27    19    34 1   
    28    20    21 ar  
    29    20    35 1   
    30    21    22 ar  
    31    22    23 1   
    32    22    25 ar  
    33    23    24 1   
    34    24    36 1   
    35    24    37 1   
    36    24    38 1   
    37    25    26 ar  
    38    25    39 1   
    39    26    27 1   
    40    27    28 1   
    41    27    29 1   
    42    27    30 1   
@<TRIPOS>SUBSTRUCTURE
     1 2M9         1 TEMP              0 ****  ****    0 ROOT
