@<TRIPOS>MOLECULE
2MD
   73    78     1     0     0
SMALL
No Charge or Current Charge


@<TRIPOS>ATOM
      1 PB           1.3500     4.3310     0.8000 p5         1 2MD       1.458800
      2 O3B          1.0620     3.7060    -0.6160 os         1 2MD      -0.688800
      3 O1B          2.5570     5.2070     0.8500 o          1 2MD      -0.848500
      4 O2B          0.1480     4.9540     1.4320 o          1 2MD      -0.848500
      5 O3A          1.6870     2.9360     1.5300 os         1 2MD      -0.570400
      6 C10          0.6190     2.0050     1.7600 c3         1 2MD       0.231600
      7 C11          1.1970     0.5560     1.8100 c6         1 2MD       0.179300
      8 O11          1.8100     0.3640     3.1070 os         1 2MD      -0.397000
      9 C12          0.1210    -0.5410     1.5650 c6         1 2MD       0.048300
     10 S12         -1.3300    -0.3680     2.7650 sh         1 2MD      -0.356800
     11 C13          0.8020    -1.9440     1.6560 c6         1 2MD       0.119300
     12 S13         -0.4520    -3.3360     1.4200 sh         1 2MD      -0.471800
     13 C14          1.6460    -2.1350     2.9630 c6         1 2MD       0.163500
     14 N15          0.8060    -2.5120     4.1390 nu         1 2MD      -0.710200
     15 C16          1.1360    -2.0340     5.4180 cc         1 2MD      -0.181200
     16 C15          0.2550    -2.3630     6.5610 c          1 2MD       0.581200
     17 O14         -0.7590    -3.0450     6.5020 o          1 2MD      -0.593000
     18 N17          0.6860    -1.8250     7.7180 ns         1 2MD      -0.435400
     19 C17          1.7910    -1.0700     7.8120 cc         1 2MD       0.702800
     20 N16          2.0700    -0.6020     9.0170 nv         1 2MD      -1.043200
     21 N18          2.6100    -0.7280     6.8540 nd         1 2MD      -0.717300
     22 C20          2.2560    -1.2370     5.6240 cd         1 2MD       0.428600
     23 N8           3.0740    -0.8400     4.6200 nu         1 2MD      -0.799200
     24 C7           2.5590    -0.8570     3.2420 c6         1 2MD       0.462500
     25 PA           1.1250     4.7340    -1.8050 p5         1 2MD       1.455800
     26 O1A          2.4960     4.8750    -2.3810 o          1 2MD      -0.847500
     27 O2A          0.4870     6.0540    -1.5150 o          1 2MD      -0.847500
     28 O5           0.1720     3.9160    -2.8210 os         1 2MD      -0.559400
     29 C5           0.6240     2.7280    -3.4890 c3         1 2MD       0.224600
     30 C4           0.3370     1.4580    -2.6210 c5         1 2MD       0.126300
     31 O4          -0.8360     0.7710    -3.1390 os         1 2MD      -0.401000
     32 C1          -0.4240    -0.3290    -3.9880 c5         1 2MD       0.318300
     33 N9          -1.1710    -0.2890    -5.2460 na         1 2MD      -0.174500
     34 C18         -2.2540    -1.0670    -5.5760 cc         1 2MD       0.120400
     35 N3          -2.8970    -2.0130    -4.7980 nc         1 2MD      -0.674100
     36 C2          -3.9120    -2.5760    -5.4100 cd         1 2MD       0.703800
     37 N2          -4.5840    -3.4730    -4.7050 nv         1 2MD      -1.061200
     38 N1          -4.3510    -2.3300    -6.6640 ns         1 2MD      -0.460400
     39 C6          -3.7720    -1.4170    -7.5000 c          1 2MD       0.520500
     40 O6          -4.1920    -1.2160    -8.6340 o          1 2MD      -0.547000
     41 C9          -2.6070    -0.7310    -6.8630 cd         1 2MD       0.093500
     42 N7          -1.7470     0.2480    -7.3500 nd         1 2MD      -0.623000
     43 C8          -0.8910     0.4890    -6.3570 cc         1 2MD       0.449400
     44 C19          1.1470    -0.2610    -4.0650 c5         1 2MD       0.067300
     45 O2           1.7950    -1.5450    -4.1960 oh         1 2MD      -0.709000
     46 C3           1.4670     0.3840    -2.6880 c5         1 2MD       0.106300
     47 O3           1.3830    -0.6020    -1.6550 oh         1 2MD      -0.701000
     48 H101        -0.1240     2.0530     0.9510 h1         1 2MD       0.030200
     49 H102         0.1070     2.2290     2.7070 h1         1 2MD       0.030200
     50 H11          1.9720     0.4720     1.0330 h1         1 2MD       0.039700
     51 H12         -0.2770    -0.4180     0.5470 h1         1 2MD       0.057700
     52 HS2         -1.7530     0.8390     2.3170 hs         1 2MD       0.169800
     53 H13          1.5100    -2.0050     0.8140 h1         1 2MD       0.065700
     54 HS3         -0.9220    -2.8970     0.2250 hs         1 2MD       0.212800
     55 H14          2.3310    -2.9770     2.7800 h1         1 2MD       0.029700
     56 HNF         -0.1370    -2.8810     3.9830 hn         1 2MD       0.466000
     57 HNH          0.1490    -2.0280     8.5440 hn         1 2MD       0.311500
     58 HNG1         2.7870     0.1120     9.0140 hn         1 2MD       0.483000
     59 HNG2         1.2890    -0.4280     9.6390 hn         1 2MD       0.483000
     60 HN8          3.6510    -0.0530     4.8930 hn         1 2MD       0.520000
     61 H7           3.3900    -0.8480     2.5190 h2         1 2MD       0.047700
     62 H5'1         0.1180     2.6320    -4.4590 h1         1 2MD       0.006700
     63 H5'2         1.7000     2.7890    -3.6920 h1         1 2MD       0.006700
     64 H4           0.1410     1.7540    -1.5850 h1         1 2MD       0.148700
     65 H1          -0.7120    -1.2660    -3.4960 h2         1 2MD       0.095700
     66 HN21        -4.3590    -3.4700    -3.7160 hn         1 2MD       0.489500
     67 HN22        -5.5660    -3.5980    -4.9270 hn         1 2MD       0.489500
     68 HN1         -5.1350    -2.8430    -7.0310 hn         1 2MD       0.304500
     69 H8          -0.0760     1.2040    -6.3780 h5         1 2MD       0.114100
     70 H2           1.4740     0.4100    -4.8730 h1         1 2MD       0.060700
     71 HO2          1.7130    -1.8360    -5.1390 ho         1 2MD       0.498000
     72 H3           2.4640     0.8480    -2.6850 h1         1 2MD       0.049700
     73 HO3          1.6740    -1.4300    -2.1120 ho         1 2MD       0.495000
@<TRIPOS>BOND
     1     1     2 1   
     2     1     3 1   
     3     1     4 1   
     4     1     5 1   
     5     2    25 1   
     6     5     6 1   
     7     6     7 1   
     8     6    48 1   
     9     6    49 1   
    10     7     8 1   
    11     7     9 1   
    12     7    50 1   
    13     8    24 1   
    14     9    10 1   
    15     9    11 1   
    16     9    51 1   
    17    10    52 1   
    18    11    12 1   
    19    11    13 1   
    20    11    53 1   
    21    12    54 1   
    22    13    14 1   
    23    13    24 1   
    24    13    55 1   
    25    14    15 1   
    26    14    56 1   
    27    15    16 1   
    28    15    22 2   
    29    16    17 2   
    30    16    18 1   
    31    18    19 1   
    32    18    57 1   
    33    19    20 1   
    34    19    21 2   
    35    20    58 1   
    36    20    59 1   
    37    21    22 1   
    38    22    23 1   
    39    23    24 1   
    40    23    60 1   
    41    24    61 1   
    42    25    26 1   
    43    25    27 1   
    44    25    28 1   
    45    28    29 1   
    46    29    30 1   
    47    29    62 1   
    48    29    63 1   
    49    30    31 1   
    50    30    46 1   
    51    30    64 1   
    52    31    32 1   
    53    32    33 1   
    54    32    44 1   
    55    32    65 1   
    56    33    34 1   
    57    33    43 1   
    58    34    35 1   
    59    34    41 2   
    60    35    36 2   
    61    36    37 1   
    62    36    38 1   
    63    37    66 1   
    64    37    67 1   
    65    38    39 1   
    66    38    68 1   
    67    39    40 2   
    68    39    41 1   
    69    41    42 1   
    70    42    43 2   
    71    43    69 1   
    72    44    45 1   
    73    44    46 1   
    74    44    70 1   
    75    45    71 1   
    76    46    47 1   
    77    46    72 1   
    78    47    73 1   
@<TRIPOS>SUBSTRUCTURE
     1 2MD         1 TEMP              0 ****  ****    0 ROOT
