@<TRIPOS>MOLECULE
2MD
   73    78     1     0     0
SMALL
bcc


@<TRIPOS>ATOM
      1 PB          -1.6120     3.4300     1.0260 p5         1 2MD       1.458800
      2 O3B         -0.9560     3.0510    -0.4290 os         1 2MD      -0.688800
      3 O1B         -0.6740     4.2710     1.8320 o          1 2MD      -0.848500
      4 O2B         -3.0350     3.8530     0.8320 o          1 2MD      -0.848500
      5 O3A         -1.5790     1.8760     1.5690 os         1 2MD      -0.547200
      6 C10         -2.1180     1.6220     2.8480 c3         1 2MD       0.208400
      7 C11         -1.9300     0.1550     3.1620 c6         1 2MD       0.156100
      8 O11         -0.5530    -0.1060     3.2900 os         1 2MD      -0.350600
      9 C12         -2.6810    -0.2990     4.4170 c6         1 2MD       0.000400
     10 S12         -2.2460     0.6820     5.8950 sh         1 2MD      -0.308900
     11 C13         -2.4070    -1.7940     4.5860 c6         1 2MD       0.071400
     12 S13         -3.2110    -2.5610     6.0290 sh         1 2MD      -0.423900
     13 C14         -0.9130    -2.1030     4.6230 c6         1 2MD       0.163500
     14 N15         -0.2880    -1.5250     5.7880 nu         1 2MD      -0.655000
     15 C16          1.1130    -1.6160     5.7880 cc         1 2MD      -0.181200
     16 C15          1.8270    -1.6510     7.0080 c          1 2MD       0.723700
     17 O14          1.3360    -1.6500     8.1370 o          1 2MD      -0.668500
     18 N17          3.2110    -1.6930     6.8470 ns         1 2MD      -0.502400
     19 C17          3.8280    -1.7140     5.6430 cc         1 2MD       0.702800
     20 N16          5.1750    -1.8010     5.6310 nv         1 2MD      -0.932800
     21 N18          3.1640    -1.6970     4.5210 nd         1 2MD      -0.717300
     22 C20          1.8160    -1.6540     4.6040 cd         1 2MD       0.428600
     23 N8           1.1390    -1.6690     3.4240 nu         1 2MD      -0.744000
     24 C7          -0.2640    -1.4840     3.3760 c6         1 2MD       0.439300
     25 PA           0.1790     3.9530    -1.1960 p5         1 2MD       1.455800
     26 O1A          1.5510     3.6280    -0.6950 o          1 2MD      -0.847500
     27 O2A         -0.2760     5.3750    -1.2960 o          1 2MD      -0.847500
     28 O5          -0.0670     3.2010    -2.6440 os         1 2MD      -0.536200
     29 C5           0.9390     3.2870    -3.6250 c3         1 2MD       0.201400
     30 C4           1.8890     2.0990    -3.5700 c5         1 2MD       0.103100
     31 O4           1.1690     0.8620    -3.5590 os         1 2MD      -0.354600
     32 C1           1.2440     0.2300    -4.8000 c5         1 2MD       0.265800
     33 N9          -0.0870    -0.1710    -5.2050 na         1 2MD      -0.195900
     34 C18         -0.4140    -1.3000    -5.8880 cc         1 2MD       0.105800
     35 N3           0.4260    -2.2750    -6.2640 nc         1 2MD      -0.674100
     36 C2          -0.1690    -3.2500    -6.9030 cd         1 2MD       0.703800
     37 N2           0.5480    -4.2810    -7.3730 nv         1 2MD      -0.950800
     38 N1          -1.5110    -3.2650    -7.1570 ns         1 2MD      -0.527400
     39 C6          -2.4330    -2.2800    -6.7830 c          1 2MD       0.663000
     40 O6          -3.6160    -2.4000    -7.0590 o          1 2MD      -0.622500
     41 C9          -1.7810    -1.2220    -6.0880 cd         1 2MD       0.158800
     42 N7          -2.2860    -0.0740    -5.5340 nd         1 2MD      -0.623000
     43 C8          -1.2560     0.5260    -5.0220 cc         1 2MD       0.449400
     44 C19          1.8980     1.2320    -5.7560 c5         1 2MD       0.044100
     45 O2           2.5860     0.5520    -6.7640 oh         1 2MD      -0.586800
     46 C3           2.7830     2.0330    -4.7970 c5         1 2MD       0.083100
     47 O3           3.9480     1.3180    -4.4750 oh         1 2MD      -0.578800
     48 H101        -3.1910     1.8490     2.8810 h1         1 2MD       0.030200
     49 H102        -1.6280     2.2290     3.6160 h1         1 2MD       0.030200
     50 H11         -2.3470    -0.4250     2.3210 h1         1 2MD       0.039700
     51 H12         -3.7520    -0.1680     4.2480 h1         1 2MD       0.057700
     52 HS2         -3.2940     1.5160     5.8150 hs         1 2MD       0.169800
     53 H13         -2.8100    -2.2890     3.6980 h1         1 2MD       0.065700
     54 HS3         -4.4410    -2.0870     5.8010 hs         1 2MD       0.212800
     55 H14         -0.7770    -3.1940     4.5510 h1         1 2MD       0.029700
     56 HNF         -0.6840    -1.8480     6.6600 hn         1 2MD       0.410800
     57 HNH          3.7640    -1.7260     7.6940 hn         1 2MD       0.311500
     58 HNG1         5.6250    -1.6090     4.7520 hn         1 2MD       0.427800
     59 HNG2         5.6950    -1.5210     6.4460 hn         1 2MD       0.427800
     60 HN8          1.6730    -1.6230     2.5710 hn         1 2MD       0.464800
     61 H7          -0.6540    -1.9990     2.4870 h2         1 2MD       0.047700
     62 H5'1         0.4350     3.3330    -4.5960 h1         1 2MD       0.006700
     63 H5'2         1.5340     4.2040    -3.5470 h1         1 2MD       0.006700
     64 H4           2.4720     2.1530    -2.6480 h1         1 2MD       0.148700
     65 H1           1.8410    -0.6860    -4.7500 h2         1 2MD       0.095700
     66 HN21         1.5040    -4.3630    -7.0690 hn         1 2MD       0.434300
     67 HN22         0.1000    -5.1290    -7.6740 hn         1 2MD       0.434300
     68 HN1         -1.8930    -4.0520    -7.6650 hn         1 2MD       0.304500
     69 H8          -1.2860     1.4560    -4.4750 h5         1 2MD       0.114100
     70 H2           1.1300     1.8930    -6.1760 h1         1 2MD       0.060700
     71 HO2          2.7420     1.1590    -7.4950 ho         1 2MD       0.399000
     72 H3           3.0140     3.0310    -5.1910 h1         1 2MD       0.049700
     73 HO3          4.3290     0.9880    -5.2970 ho         1 2MD       0.396000
@<TRIPOS>BOND
     1     1     2 1   
     2     1     3 1   
     3     1     4 1   
     4     1     5 1   
     5     2    25 1   
     6     5     6 1   
     7     6     7 1   
     8     6    48 1   
     9     6    49 1   
    10     7     8 1   
    11     7     9 1   
    12     7    50 1   
    13     8    24 1   
    14     9    10 1   
    15     9    11 1   
    16     9    51 1   
    17    10    52 1   
    18    11    12 1   
    19    11    13 1   
    20    11    53 1   
    21    12    54 1   
    22    13    14 1   
    23    13    24 1   
    24    13    55 1   
    25    14    15 1   
    26    14    56 1   
    27    15    16 1   
    28    15    22 2   
    29    16    17 2   
    30    16    18 1   
    31    18    19 1   
    32    18    57 1   
    33    19    20 1   
    34    19    21 2   
    35    20    58 1   
    36    20    59 1   
    37    21    22 1   
    38    22    23 1   
    39    23    24 1   
    40    23    60 1   
    41    24    61 1   
    42    25    26 1   
    43    25    27 1   
    44    25    28 1   
    45    28    29 1   
    46    29    30 1   
    47    29    62 1   
    48    29    63 1   
    49    30    31 1   
    50    30    46 1   
    51    30    64 1   
    52    31    32 1   
    53    32    33 1   
    54    32    44 1   
    55    32    65 1   
    56    33    34 1   
    57    33    43 1   
    58    34    35 1   
    59    34    41 2   
    60    35    36 2   
    61    36    37 1   
    62    36    38 1   
    63    37    66 1   
    64    37    67 1   
    65    38    39 1   
    66    38    68 1   
    67    39    40 2   
    68    39    41 1   
    69    41    42 1   
    70    42    43 2   
    71    43    69 1   
    72    44    45 1   
    73    44    46 1   
    74    44    70 1   
    75    45    71 1   
    76    46    47 1   
    77    46    72 1   
    78    47    73 1   
@<TRIPOS>SUBSTRUCTURE
     1 2MD         1 TEMP              0 ****  ****    0 ROOT
