@<TRIPOS>MOLECULE
2ME
   12    11     1     0     0
SMALL
bcc


@<TRIPOS>ATOM
      1 CA           1.9060     0.1150     0.0020 c3         1 2ME      -0.092100
      2 CB           0.5520    -0.5570     0.0160 c3         1 2ME       0.135400
      3 OC          -0.4580     0.4260     0.0070 os         1 2ME      -0.408600
      4 CD          -1.7470    -0.1270     0.0180 c3         1 2ME       0.123700
      5 HA'1         2.0420     0.7540     0.8750 hc         1 2ME       0.042033
      6 HA'2         2.6930    -0.6380     0.0140 hc         1 2ME       0.042033
      7 HA'3         2.0390     0.7240    -0.8940 hc         1 2ME       0.042033
      8 HB'1         0.4510    -1.2190    -0.8560 h1         1 2ME       0.017700
      9 HB'2         0.4580    -1.1960     0.9060 h1         1 2ME       0.017700
     10 HD'1        -1.9330    -0.7600    -0.8580 h1         1 2ME       0.026367
     11 HD'2        -1.9270    -0.7370     0.9120 h1         1 2ME       0.026367
     12 HD'3        -2.4670     0.6910     0.0100 h1         1 2ME       0.026367
@<TRIPOS>BOND
     1     1     2 1   
     2     1     5 1   
     3     1     6 1   
     4     1     7 1   
     5     2     3 1   
     6     2     8 1   
     7     2     9 1   
     8     3     4 1   
     9     4    10 1   
    10     4    11 1   
    11     4    12 1   
@<TRIPOS>SUBSTRUCTURE
     1 2ME         1 TEMP              0 ****  ****    0 ROOT
