@<TRIPOS>MOLECULE
2ME
   12    11     1     0     0
SMALL
No Charge or Current Charge


@<TRIPOS>ATOM
      1 CA           1.9330     0.1170     0.0020 c3         1 2ME      -0.092100
      2 CB           0.5730    -0.6000     0.0170 c3         1 2ME       0.158600
      3 OC          -0.4510     0.4060     0.0060 os         1 2ME      -0.455000
      4 CD          -1.7930    -0.1110     0.0180 c3         1 2ME       0.146900
      5 HA'1         2.0410     0.7600     0.8830 hc         1 2ME       0.042033
      6 HA'2         2.7470    -0.6160     0.0100 hc         1 2ME       0.042033
      7 HA'3         2.0350     0.7340    -0.8990 hc         1 2ME       0.042033
      8 HB'1         0.4920    -1.2490    -0.8650 h1         1 2ME       0.017700
      9 HB'2         0.4980    -1.2230     0.9180 h1         1 2ME       0.017700
     10 HD'1        -1.9760    -0.7390    -0.8640 h1         1 2ME       0.026367
     11 HD'2        -1.9700    -0.7140     0.9180 h1         1 2ME       0.026367
     12 HD'3        -2.5190     0.7120     0.0080 h1         1 2ME       0.026367
@<TRIPOS>BOND
     1     1     2 1   
     2     1     5 1   
     3     1     6 1   
     4     1     7 1   
     5     2     3 1   
     6     2     8 1   
     7     2     9 1   
     8     3     4 1   
     9     4    10 1   
    10     4    11 1   
    11     4    12 1   
@<TRIPOS>SUBSTRUCTURE
     1 2ME         1 TEMP              0 ****  ****    0 ROOT
