@<TRIPOS>MOLECULE
2MG
   39    41     1     0     0
SMALL
bcc


@<TRIPOS>ATOM
      1 P           -0.7340     0.3550    -5.2070 p5         1 2MG       1.268900
      2 OP1         -2.0660    -0.2940    -4.8480 o          1 2MG      -0.921833
      3 OP2         -0.8210     1.7910    -5.7020 o          1 2MG      -0.921833
      4 OP3          0.2040    -0.5470    -6.0020 o          1 2MG      -0.921833
      5 O5           0.0540     0.5900    -3.7060 os         1 2MG      -0.539200
      6 C5           0.2810    -0.5410    -2.9290 c3         1 2MG       0.231400
      7 C4           1.2570    -0.2200    -1.8210 c5         1 2MG       0.123100
      8 O4           0.7000     0.7400    -0.9190 os         1 2MG      -0.355600
      9 C3           1.6160    -1.4140    -0.9440 c5         1 2MG       0.061100
     10 O3           2.6630    -2.1450    -1.5220 oh         1 2MG      -0.572800
     11 C2           2.0020    -0.7340     0.3750 c5         1 2MG       0.060100
     12 O2           3.3000    -0.2120     0.3070 oh         1 2MG      -0.593800
     13 C1           1.0240     0.4410     0.4040 c5         1 2MG       0.253800
     14 N9          -0.1940     0.1150     1.1320 na         1 2MG      -0.200900
     15 C8          -1.3810    -0.3750     0.6470 cc         1 2MG       0.449400
     16 N7          -2.2580    -0.5870     1.5810 nd         1 2MG      -0.630000
     17 C7          -1.6250    -0.2240     2.7420 cd         1 2MG       0.155800
     18 C6          -2.0780    -0.2340     4.0930 c          1 2MG       0.664000
     19 O6          -3.1600    -0.5860     4.5350 o          1 2MG      -0.627500
     20 N1          -1.0780     0.2360     4.9510 ns         1 2MG      -0.529400
     21 C10          0.1740     0.6560     4.5840 cd         1 2MG       0.708800
     22 N2           0.9840     1.0800     5.5570 nu         1 2MG      -0.872200
     23 CM2          2.3280     1.5340     5.2940 c3         1 2MG       0.240100
     24 N3           0.5870     0.6550     3.3400 nc         1 2MG      -0.676100
     25 C9          -0.3410     0.2150     2.4790 cc         1 2MG       0.093800
     26 H5           0.7210    -1.3620    -3.5140 h1         1 2MG       0.004200
     27 H5'         -0.6490    -0.9370    -2.4920 h1         1 2MG       0.004200
     28 H4           2.1740     0.1930    -2.2620 h1         1 2MG       0.080700
     29 H3           0.7320    -2.0460    -0.7850 h1         1 2MG       0.054700
     30 HO3          2.6700    -3.0290    -1.1420 ho         1 2MG       0.388000
     31 H2           1.8730    -1.3920     1.2440 h1         1 2MG       0.040700
     32 HO2          3.8390    -0.8360    -0.1950 ho         1 2MG       0.418000
     33 H1           1.4660     1.3060     0.9060 h2         1 2MG       0.098700
     34 H8          -1.5450    -0.5390    -0.4060 h5         1 2MG       0.109100
     35 HN1         -1.3220     0.2570     5.9330 hn         1 2MG       0.300500
     36 HN2          0.6660     1.0530     6.5110 hn         1 2MG       0.431800
     37 HM21         2.7710     1.8360     6.2390 h1         1 2MG       0.040700
     38 HM22         2.9430     0.7460     4.8580 h1         1 2MG       0.040700
     39 HM23         2.3380     2.3890     4.6180 h1         1 2MG       0.040700
@<TRIPOS>BOND
     1     1     2 1   
     2     1     3 1   
     3     1     4 1   
     4     1     5 1   
     5     5     6 1   
     6     6     7 1   
     7     6    26 1   
     8     6    27 1   
     9     7     8 1   
    10     7     9 1   
    11     7    28 1   
    12     8    13 1   
    13     9    10 1   
    14     9    11 1   
    15     9    29 1   
    16    10    30 1   
    17    11    12 1   
    18    11    13 1   
    19    11    31 1   
    20    12    32 1   
    21    13    14 1   
    22    13    33 1   
    23    14    15 1   
    24    14    25 1   
    25    15    16 2   
    26    15    34 1   
    27    16    17 1   
    28    17    18 1   
    29    17    25 2   
    30    18    19 2   
    31    18    20 1   
    32    20    21 1   
    33    20    35 1   
    34    21    22 1   
    35    21    24 2   
    36    22    23 1   
    37    22    36 1   
    38    23    37 1   
    39    23    38 1   
    40    23    39 1   
    41    24    25 1   
@<TRIPOS>SUBSTRUCTURE
     1 2MG         1 TEMP              0 ****  ****    0 ROOT
