@<TRIPOS>MOLECULE
2MH
   23    23     1     0     0
SMALL
abcg2


@<TRIPOS>ATOM
      1 N1          -1.9750    -0.0190     1.1640 n8         1 2MH      -0.995200
      2 C5          -1.6320    -0.0000    -0.2540 c6         1 2MH       0.163500
      3 C6          -0.8260    -1.2500    -0.6070 c6         1 2MH      -0.066400
      4 C4          -0.8180     1.2530    -0.5720 c6         1 2MH      -0.066400
      5 C3           0.5590     1.2420     0.0830 c6         1 2MH      -0.063400
      6 C2           1.3570    -0.0100    -0.2790 c6         1 2MH      -0.058700
      7 C1           2.7130    -0.0250     0.4140 c3         1 2MH      -0.085100
      8 C7           0.5510    -1.2660     0.0480 c6         1 2MH      -0.063400
      9 HN11        -2.5580     0.7820     1.3770 hn         1 2MH       0.389500
     10 HN12        -2.5490    -0.8310     1.3590 hn         1 2MH       0.389500
     11 H5          -2.5280     0.0110    -0.8930 h1         1 2MH       0.010700
     12 H61         -1.3890    -2.1450    -0.3260 hc         1 2MH       0.035700
     13 H62         -0.7120    -1.2910    -1.6950 hc         1 2MH       0.035700
     14 H41         -0.7040     1.3240    -1.6590 hc         1 2MH       0.035700
     15 H42         -1.3760     2.1440    -0.2670 hc         1 2MH       0.035700
     16 H31          1.1150     2.1350    -0.2190 hc         1 2MH       0.042700
     17 H32          0.4510     1.2980     1.1710 hc         1 2MH       0.042700
     18 H2           1.5260     0.0050    -1.3650 hc         1 2MH       0.037700
     19 H11          2.5910    -0.0430     1.5000 hc         1 2MH       0.031700
     20 H12          3.2960    -0.9030     0.1310 hc         1 2MH       0.031700
     21 H13          3.3020     0.8590     0.1600 hc         1 2MH       0.031700
     22 H71          0.4430    -1.3510     1.1340 hc         1 2MH       0.042700
     23 H72          1.1010    -2.1530    -0.2790 hc         1 2MH       0.042700
@<TRIPOS>BOND
     1     1     2 1   
     2     1     9 1   
     3     1    10 1   
     4     2     3 1   
     5     2     4 1   
     6     2    11 1   
     7     3     8 1   
     8     3    12 1   
     9     3    13 1   
    10     4     5 1   
    11     4    14 1   
    12     4    15 1   
    13     5     6 1   
    14     5    16 1   
    15     5    17 1   
    16     6     7 1   
    17     6     8 1   
    18     6    18 1   
    19     7    19 1   
    20     7    20 1   
    21     7    21 1   
    22     8    22 1   
    23     8    23 1   
@<TRIPOS>SUBSTRUCTURE
     1 2MH         1 TEMP              0 ****  ****    0 ROOT
