@<TRIPOS>MOLECULE
2MH
   23    23     1     0     0
SMALL
No Charge or Current Charge


@<TRIPOS>ATOM
      1 N1          -2.0840    -0.0200     1.1660 n8         1 2MH      -0.995200
      2 C5          -1.6440    -0.0010    -0.2450 c6         1 2MH       0.163500
      3 C6          -0.8310    -1.2770    -0.5990 c6         1 2MH      -0.066400
      4 C4          -0.8230     1.2790    -0.5630 c6         1 2MH      -0.066400
      5 C3           0.5770     1.2640     0.1060 c6         1 2MH      -0.063400
      6 C2           1.3780    -0.0100    -0.2800 c6         1 2MH      -0.058700
      7 C1           2.7800    -0.0240     0.3870 c3         1 2MH      -0.085100
      8 C7           0.5700    -1.2900     0.0700 c6         1 2MH      -0.063400
      9 HN11        -2.6980     0.7850     1.3270 hn         1 2MH       0.389500
     10 HN12        -2.7030    -0.8260     1.3040 hn         1 2MH       0.389500
     11 H5          -2.5610     0.0100    -0.8510 h1         1 2MH       0.010700
     12 H61         -1.3920    -2.1770    -0.3110 hc         1 2MH       0.035700
     13 H62         -0.7100    -1.3330    -1.6900 hc         1 2MH       0.035700
     14 H41         -0.7010     1.3650    -1.6520 hc         1 2MH       0.035700
     15 H42         -1.3780     2.1740    -0.2490 hc         1 2MH       0.035700
     16 H31          1.1350     2.1620    -0.1950 hc         1 2MH       0.042700
     17 H32          0.4690     1.3220     1.1980 hc         1 2MH       0.042700
     18 H2           1.5550     0.0050    -1.3650 hc         1 2MH       0.037700
     19 H11          2.7020    -0.0390     1.4810 hc         1 2MH       0.031700
     20 H12          3.3550    -0.9060     0.0800 hc         1 2MH       0.031700
     21 H13          3.3600     0.8630     0.1050 hc         1 2MH       0.031700
     22 H71          0.4610    -1.3780     1.1600 hc         1 2MH       0.042700
     23 H72          1.1220    -2.1820    -0.2570 hc         1 2MH       0.042700
@<TRIPOS>BOND
     1     1     2 1   
     2     1     9 1   
     3     1    10 1   
     4     2     3 1   
     5     2     4 1   
     6     2    11 1   
     7     3     8 1   
     8     3    12 1   
     9     3    13 1   
    10     4     5 1   
    11     4    14 1   
    12     4    15 1   
    13     5     6 1   
    14     5    16 1   
    15     5    17 1   
    16     6     7 1   
    17     6     8 1   
    18     6    18 1   
    19     7    19 1   
    20     7    20 1   
    21     7    21 1   
    22     8    22 1   
    23     8    23 1   
@<TRIPOS>SUBSTRUCTURE
     1 2MH         1 TEMP              0 ****  ****    0 ROOT
