@<TRIPOS>MOLECULE
2MI
   19    20     1     0     0
SMALL
bcc


@<TRIPOS>ATOM
      1 CAJ          3.4430     0.0400    -0.0330 c3         1 2MI      -0.037900
      2 CAG          1.9620    -0.0830    -0.0250 cc         1 2MI      -0.062300
      3 CAC          1.1730    -1.2000    -0.0640 cd         1 2MI      -0.187200
      4 CAA         -0.1870    -0.7620    -0.0320 ca         1 2MI      -0.095800
      5 CAD         -1.4270    -1.4100    -0.0480 ca         1 2MI      -0.079000
      6 CAH         -2.5820    -0.6520    -0.0090 ca         1 2MI      -0.160000
      7 CAI         -2.5260     0.7500     0.0480 ca         1 2MI      -0.111000
      8 CAF         -1.3160     1.4190     0.0660 ca         1 2MI      -0.148000
      9 CAB         -0.1550     0.6500     0.0270 ca         1 2MI      -0.046200
     10 NAE          1.1580     1.0250     0.0300 na         1 2MI      -0.176400
     11 HAJ1         3.8120     0.4890     0.8910 hc         1 2MI       0.048033
     12 HAJ2         3.9030    -0.9400    -0.1370 hc         1 2MI       0.048033
     13 HAJ3         3.7880     0.6640    -0.8590 hc         1 2MI       0.048033
     14 HAC          1.5280    -2.2180    -0.1130 ha         1 2MI       0.152000
     15 HAD         -1.4820    -2.4910    -0.0900 ha         1 2MI       0.130000
     16 HAH         -3.5470    -1.1430    -0.0230 ha         1 2MI       0.127000
     17 HAI         -3.4470     1.3190     0.0770 ha         1 2MI       0.126000
     18 HAF         -1.2740     2.5000     0.1090 ha         1 2MI       0.129000
     19 HAE          1.4900     1.9760     0.0640 hn         1 2MI       0.294700
@<TRIPOS>BOND
     1     1     2 1   
     2     1    11 1   
     3     1    12 1   
     4     1    13 1   
     5     2     3 2   
     6     2    10 1   
     7     3     4 1   
     8     3    14 1   
     9     4     5 ar  
    10     4     9 ar  
    11     5     6 ar  
    12     5    15 1   
    13     6     7 ar  
    14     6    16 1   
    15     7     8 ar  
    16     7    17 1   
    17     8     9 ar  
    18     8    18 1   
    19     9    10 1   
    20    10    19 1   
@<TRIPOS>SUBSTRUCTURE
     1 2MI         1 TEMP              0 ****  ****    0 ROOT
