@<TRIPOS>MOLECULE
2MI
   19    20     1     0     0
SMALL
No Charge or Current Charge


@<TRIPOS>ATOM
      1 CAJ          3.5120     0.0050    -0.0350 c3         1 2MI      -0.037900
      2 CAG          2.0100    -0.0530    -0.0240 cc         1 2MI      -0.062300
      3 CAC          1.1550    -1.1430    -0.0670 cd         1 2MI      -0.237200
      4 CAA         -0.2180    -0.7110    -0.0350 ca         1 2MI      -0.095800
      5 CAD         -1.4240    -1.4220    -0.0570 ca         1 2MI      -0.061000
      6 CAH         -2.6200    -0.6720    -0.0120 ca         1 2MI      -0.142000
      7 CAI         -2.5780     0.7440     0.0530 ca         1 2MI      -0.093000
      8 CAF         -1.3390     1.4240     0.0730 ca         1 2MI      -0.130000
      9 CAB         -0.1710     0.6530     0.0270 ca         1 2MI      -0.046200
     10 NAE          1.1540     1.0650     0.0350 na         1 2MI      -0.226700
     11 HAJ1         3.8910     0.4890     0.8740 hc         1 2MI       0.048033
     12 HAJ2         3.9440    -1.0010    -0.0860 hc         1 2MI       0.048033
     13 HAJ3         3.8750     0.5730    -0.8990 hc         1 2MI       0.048033
     14 HAC          1.4830    -2.1790    -0.1180 ha         1 2MI       0.202000
     15 HAD         -1.4380    -2.5080    -0.1070 ha         1 2MI       0.112000
     16 HAH         -3.5790    -1.1840    -0.0280 ha         1 2MI       0.109000
     17 HAI         -3.5060     1.3110     0.0870 ha         1 2MI       0.108000
     18 HAF         -1.2970     2.5090     0.1230 ha         1 2MI       0.111000
     19 HAE          1.4590     2.0320     0.0770 hn         1 2MI       0.345000
@<TRIPOS>BOND
     1     1     2 1   
     2     1    11 1   
     3     1    12 1   
     4     1    13 1   
     5     2     3 2   
     6     2    10 1   
     7     3     4 1   
     8     3    14 1   
     9     4     5 ar  
    10     4     9 ar  
    11     5     6 ar  
    12     5    15 1   
    13     6     7 ar  
    14     6    16 1   
    15     7     8 ar  
    16     7    17 1   
    17     8     9 ar  
    18     8    18 1   
    19     9    10 1   
    20    10    19 1   
@<TRIPOS>SUBSTRUCTURE
     1 2MI         1 TEMP              0 ****  ****    0 ROOT
