@<TRIPOS>MOLECULE
2MJ
   27    26     1     0     0
SMALL
No Charge or Current Charge


@<TRIPOS>ATOM
      1 C13         -2.6320    -0.0580     0.0980 c3         1 2MJ      -0.053700
      2 C9           2.5520    -0.7110     0.0650 c3         1 2MJ       0.129600
      3 C1           1.3600     0.2500    -0.1960 c3         1 2MJ       0.121300
      4 O10          1.6580     1.5240     0.4130 oh         1 2MJ      -0.636000
      5 C11         -0.0090    -0.3100     0.3260 c3         1 2MJ       0.140500
      6 C12         -1.2160     0.5030    -0.2280 c3         1 2MJ      -0.062400
      7 C47         -3.7330     0.9200    -0.3740 c3         1 2MJ      -0.087600
      8 C19         -2.8700    -1.4700    -0.4900 c3         1 2MJ      -0.087600
      9 N20         -0.0500    -0.3550     1.8110 n8         1 2MJ      -1.012200
     10 H1          -2.7250    -0.1360     1.1890 hc         1 2MJ       0.059700
     11 H3           2.6360    -0.9190     1.1400 h1         1 2MJ       0.017200
     12 H4           2.3600    -1.6650    -0.4450 h1         1 2MJ       0.017200
     13 H5           1.2790     0.3650    -1.2860 h1         1 2MJ       0.092700
     14 H6           2.6280     1.6360     0.2960 ho         1 2MJ       0.430000
     15 H7          -0.1010    -1.3400    -0.0470 h1         1 2MJ       0.061700
     16 H8          -1.1170     0.5760    -1.3190 hc         1 2MJ       0.045200
     17 H9          -1.1480     1.5310     0.1500 hc         1 2MJ       0.045200
     18 H10         -4.7270     0.5490    -0.0960 hc         1 2MJ       0.030867
     19 H11         -3.6010     1.9060     0.0870 hc         1 2MJ       0.030867
     20 H12         -3.7050     1.0440    -1.4640 hc         1 2MJ       0.030867
     21 H13         -2.7310    -1.4690    -1.5780 hc         1 2MJ       0.030867
     22 H14         -2.1820    -2.2030    -0.0540 hc         1 2MJ       0.030867
     23 H15         -3.8910    -1.8100    -0.2770 hc         1 2MJ       0.030867
     24 H16          0.6880    -0.9820     2.1470 hn         1 2MJ       0.397500
     25 H45          4.4850    -0.7890    -0.2810 ho         1 2MJ       0.443000
     26 H2           0.2650     0.5660     2.1410 hn         1 2MJ       0.397500
     27 O1           3.7720    -0.1270    -0.4210 oh         1 2MJ      -0.644000
@<TRIPOS>BOND
     1     1     6 1   
     2     1     7 1   
     3     1     8 1   
     4     1    10 1   
     5     2     3 1   
     6     2    11 1   
     7     2    12 1   
     8     2    27 1   
     9     3     4 1   
    10     3     5 1   
    11     3    13 1   
    12     4    14 1   
    13     5     6 1   
    14     5     9 1   
    15     5    15 1   
    16     6    16 1   
    17     6    17 1   
    18     7    18 1   
    19     7    19 1   
    20     7    20 1   
    21     8    21 1   
    22     8    22 1   
    23     8    23 1   
    24     9    24 1   
    25     9    26 1   
    26    25    27 1   
@<TRIPOS>SUBSTRUCTURE
     1 2MJ         1 TEMP              0 ****  ****    0 ROOT
