@<TRIPOS>MOLECULE
2MJ
   27    26     1     0     0
SMALL
bcc


@<TRIPOS>ATOM
      1 C13         -2.5340    -0.0010     0.1560 c3         1 2MJ      -0.053700
      2 C9           2.5220    -0.6720    -0.0540 c3         1 2MJ       0.106400
      3 C1           1.3530     0.2710    -0.2840 c3         1 2MJ       0.098100
      4 O10          1.6090     1.5570     0.2440 oh         1 2MJ      -0.573800
      5 C11          0.0310    -0.3250     0.2370 c3         1 2MJ       0.140500
      6 C12         -1.1520     0.5050    -0.2570 c3         1 2MJ      -0.062400
      7 C47         -3.6110     0.9240    -0.4040 c3         1 2MJ      -0.087600
      8 C19         -2.7780    -1.4360    -0.2970 c3         1 2MJ      -0.087600
      9 N20         -0.0400    -0.4930     1.6800 n8         1 2MJ      -0.901800
     10 H1          -2.5960     0.0260     1.2480 hc         1 2MJ       0.059700
     11 H3           2.6760    -0.8150     1.0250 h1         1 2MJ       0.017200
     12 H4           2.2590    -1.6550    -0.4680 h1         1 2MJ       0.017200
     13 H5           1.2470     0.4140    -1.3650 h1         1 2MJ       0.092700
     14 H6           1.8160     1.4660     1.1800 ho         1 2MJ       0.391000
     15 H7          -0.0520    -1.3250    -0.2030 h1         1 2MJ       0.061700
     16 H8          -1.1040     0.5460    -1.3510 hc         1 2MJ       0.045200
     17 H9          -1.0320     1.5390     0.0870 hc         1 2MJ       0.045200
     18 H10         -4.6070     0.6190    -0.0790 hc         1 2MJ       0.030867
     19 H11         -3.4610     1.9570    -0.0820 hc         1 2MJ       0.030867
     20 H12         -3.6040     0.9160    -1.4970 hc         1 2MJ       0.030867
     21 H13         -2.6550    -1.5320    -1.3790 hc         1 2MJ       0.030867
     22 H14         -2.0900    -2.1360     0.1800 hc         1 2MJ       0.030867
     23 H15         -3.7920    -1.7600    -0.0530 hc         1 2MJ       0.030867
     24 H16          0.7010    -1.0910     2.0210 hn         1 2MJ       0.342300
     25 H45          4.4100    -0.7290    -0.4720 ho         1 2MJ       0.404000
     26 H2           0.0540     0.3960     2.1560 hn         1 2MJ       0.342300
     27 O1           3.6750    -0.1410    -0.6640 oh         1 2MJ      -0.581800
@<TRIPOS>BOND
     1     1     6 1   
     2     1     7 1   
     3     1     8 1   
     4     1    10 1   
     5     2     3 1   
     6     2    11 1   
     7     2    12 1   
     8     2    27 1   
     9     3     4 1   
    10     3     5 1   
    11     3    13 1   
    12     4    14 1   
    13     5     6 1   
    14     5     9 1   
    15     5    15 1   
    16     6    16 1   
    17     6    17 1   
    18     7    18 1   
    19     7    19 1   
    20     7    20 1   
    21     8    21 1   
    22     8    22 1   
    23     8    23 1   
    24     9    24 1   
    25     9    26 1   
    26    25    27 1   
@<TRIPOS>SUBSTRUCTURE
     1 2MJ         1 TEMP              0 ****  ****    0 ROOT
