@<TRIPOS>MOLECULE
2MK
   81    81     1     0     0
SMALL
bcc


@<TRIPOS>ATOM
      1 C27         -3.0390     0.1240     0.0380 c          1 2MK       0.756100
      2 O36         -2.9480     0.8800     0.9830 o          1 2MK      -0.596000
      3 O28         -3.9100     0.2720    -0.9640 os         1 2MK      -0.430900
      4 C29         -4.7950     1.3970    -0.8960 c3         1 2MK       0.208700
      5 C30         -5.7060     1.3060    -2.0820 ca         1 2MK      -0.101300
      6 C35         -5.4410     2.0340    -3.2370 ca         1 2MK      -0.102000
      7 C34         -6.2750     1.9310    -4.3440 ca         1 2MK      -0.134500
      8 C33         -7.3790     1.0910    -4.3030 ca         1 2MK      -0.116000
      9 C32         -7.6500     0.3590    -3.1530 ca         1 2MK      -0.134500
     10 C31         -6.8170     0.4670    -2.0500 ca         1 2MK      -0.102000
     11 N26         -2.2920    -0.9840    -0.1250 ns         1 2MK      -0.544900
     12 C25         -1.1910    -1.2560     0.7580 c3         1 2MK       0.052700
     13 C24         -0.1060    -0.1890     0.6230 c          1 2MK       0.652100
     14 O41          0.0660     0.4320    -0.4120 o          1 2MK      -0.598100
     15 C37         -0.5720    -2.6160     0.4230 c3         1 2MK      -0.089400
     16 C38         -1.5340    -3.8040     0.5010 c3         1 2MK      -0.057700
     17 C39         -0.7760    -5.0850     0.1630 c3         1 2MK      -0.090600
     18 C40         -2.1990    -3.9160     1.8690 c3         1 2MK      -0.090600
     19 N23          0.6740    -0.0320     1.7060 ns         1 2MK      -0.546900
     20 C22          1.9200     0.6840     1.6170 c3         1 2MK       0.034700
     21 C21          2.8600    -0.0360     0.6460 c          1 2MK       0.650100
     22 O46          2.9110    -1.2530     0.5980 o          1 2MK      -0.611100
     23 C42          2.5920     0.7750     2.9860 c3         1 2MK      -0.084400
     24 C43          1.8000     1.5360     4.0500 c3         1 2MK      -0.058700
     25 C44          2.5800     1.5260     5.3620 c3         1 2MK      -0.091100
     26 C45          1.4860     2.9660     3.6210 c3         1 2MK      -0.091100
     27 C1           6.0070     0.4320    -0.6740 c3         1 2MK       0.134100
     28 O10          6.3850     1.7540    -0.3620 oh         1 2MK      -0.579800
     29 C11          4.5430     0.3400    -1.1270 c3         1 2MK       0.073700
     30 C12          4.2860     1.1370    -2.4030 c3         1 2MK      -0.087400
     31 C47          2.7020     1.9720    -4.1460 c3         1 2MK      -0.086600
     32 C19          2.4290    -0.3630    -3.2730 c3         1 2MK      -0.086600
     33 N20          3.6410     0.7830    -0.0790 ns         1 2MK      -0.565900
     34 H38         -5.3660     1.3690     0.0340 h1         1 2MK       0.056200
     35 H39         -4.2220     2.3270    -0.9150 h1         1 2MK       0.056200
     36 H44         -4.5810     2.6920    -3.2710 ha         1 2MK       0.133500
     37 H43         -6.0620     2.5070    -5.2350 ha         1 2MK       0.132500
     38 H42         -8.0300     1.0090    -5.1640 ha         1 2MK       0.130000
     39 H41         -8.5130    -0.2930    -3.1160 ha         1 2MK       0.132500
     40 H40         -7.0360    -0.1020    -1.1530 ha         1 2MK       0.133500
     41 H37         -2.3340    -1.4720    -1.0060 hn         1 2MK       0.335500
     42 H27         -1.5520    -1.2720     1.7900 h1         1 2MK       0.078700
     43 H28         -0.1320    -2.5660    -0.5780 hc         1 2MK       0.062200
     44 H29          0.2600    -2.7870     1.1120 hc         1 2MK       0.062200
     45 H30         -2.3190    -3.6730    -0.2510 hc         1 2MK       0.048700
     46 H34          0.0140    -5.2740     0.8940 hc         1 2MK       0.035700
     47 H35         -1.4430    -5.9480     0.1630 hc         1 2MK       0.035700
     48 H36         -0.3100    -5.0270    -0.8220 hc         1 2MK       0.035700
     49 H31         -2.8310    -3.0560     2.0940 hc         1 2MK       0.035700
     50 H32         -2.8320    -4.8040     1.9190 hc         1 2MK       0.035700
     51 H33         -1.4510    -3.9970     2.6620 hc         1 2MK       0.035700
     52 H26          0.5240    -0.6270     2.5060 hn         1 2MK       0.322500
     53 H2           1.7230     1.6930     1.2450 h1         1 2MK       0.079700
     54 H17          2.8090    -0.2370     3.3430 hc         1 2MK       0.052700
     55 H18          3.5620     1.2640     2.8510 hc         1 2MK       0.052700
     56 H19          0.8510     1.0160     4.2230 hc         1 2MK       0.051700
     57 H23          3.5360     2.0440     5.2520 hc         1 2MK       0.036367
     58 H24          2.0220     2.0250     6.1550 hc         1 2MK       0.036367
     59 H25          2.7910     0.5070     5.6940 hc         1 2MK       0.036367
     60 H20          2.4000     3.5070     3.3640 hc         1 2MK       0.036367
     61 H21          0.8220     3.0030     2.7560 hc         1 2MK       0.036367
     62 H22          0.9940     3.5120     4.4270 hc         1 2MK       0.036367
     63 H1           2.1750     1.4270    -2.1500 hc         1 2MK       0.058700
     64 H5           6.6280     0.1380    -1.5280 h1         1 2MK       0.089700
     65 H6           5.9180     2.0260     0.4360 ho         1 2MK       0.397000
     66 H7           4.3290    -0.7140    -1.3150 h1         1 2MK       0.084700
     67 H8           4.9710     0.7720    -3.1760 hc         1 2MK       0.052200
     68 H9           4.5520     2.1850    -2.2300 hc         1 2MK       0.052200
     69 H10          3.3440     1.6410    -4.9660 hc         1 2MK       0.033533
     70 H11          1.6740     1.9730    -4.5130 hc         1 2MK       0.033533
     71 H12          2.9710     3.0030    -3.9100 hc         1 2MK       0.033533
     72 H13          3.0920    -0.7980    -4.0250 hc         1 2MK       0.033533
     73 H14          2.4340    -1.0160    -2.4000 hc         1 2MK       0.033533
     74 H15          1.4160    -0.3750    -3.6770 hc         1 2MK       0.033533
     75 H16          3.4320     1.7690    -0.0460 hn         1 2MK       0.314500
     76 H45          7.8510    -1.1060     1.4670 ho         1 2MK       0.403000
     77 C13          2.8520     1.0620    -2.9300 c3         1 2MK      -0.063700
     78 C9           6.2980    -0.5290     0.4670 c3         1 2MK       0.106400
     79 O1           7.6840    -0.5260     0.7200 oh         1 2MK      -0.588800
     80 H3           5.7300    -0.2270     1.3590 h1         1 2MK       0.028200
     81 H4           5.9380    -1.5270     0.1870 h1         1 2MK       0.028200
@<TRIPOS>BOND
     1     1     2 2   
     2     1     3 1   
     3     1    11 1   
     4     3     4 1   
     5     4     5 1   
     6     4    34 1   
     7     4    35 1   
     8     5     6 ar  
     9     5    10 ar  
    10     6     7 ar  
    11     6    36 1   
    12     7     8 ar  
    13     7    37 1   
    14     8     9 ar  
    15     8    38 1   
    16     9    10 ar  
    17     9    39 1   
    18    10    40 1   
    19    11    12 1   
    20    11    41 1   
    21    12    13 1   
    22    12    15 1   
    23    12    42 1   
    24    13    14 2   
    25    13    19 1   
    26    15    16 1   
    27    15    43 1   
    28    15    44 1   
    29    16    17 1   
    30    16    18 1   
    31    16    45 1   
    32    17    46 1   
    33    17    47 1   
    34    17    48 1   
    35    18    49 1   
    36    18    50 1   
    37    18    51 1   
    38    19    20 1   
    39    19    52 1   
    40    20    21 1   
    41    20    23 1   
    42    20    53 1   
    43    21    22 2   
    44    21    33 1   
    45    23    24 1   
    46    23    54 1   
    47    23    55 1   
    48    24    25 1   
    49    24    26 1   
    50    24    56 1   
    51    25    57 1   
    52    25    58 1   
    53    25    59 1   
    54    26    60 1   
    55    26    61 1   
    56    26    62 1   
    57    27    28 1   
    58    27    29 1   
    59    27    64 1   
    60    27    78 1   
    61    28    65 1   
    62    29    30 1   
    63    29    33 1   
    64    29    66 1   
    65    30    67 1   
    66    30    68 1   
    67    30    77 1   
    68    31    69 1   
    69    31    70 1   
    70    31    71 1   
    71    31    77 1   
    72    32    72 1   
    73    32    73 1   
    74    32    74 1   
    75    32    77 1   
    76    33    75 1   
    77    63    77 1   
    78    76    79 1   
    79    78    79 1   
    80    78    80 1   
    81    78    81 1   
@<TRIPOS>SUBSTRUCTURE
     1 2MK         1 TEMP              0 ****  ****    0 ROOT
