@<TRIPOS>MOLECULE
2MK
   81    81     1     0     0
SMALL
No Charge or Current Charge


@<TRIPOS>ATOM
      1 C27         -3.9260    -0.8030     0.5080 c          1 2MK       0.640100
      2 O36         -4.0080    -1.5110     1.4990 o          1 2MK      -0.547000
      3 O28         -4.9530    -0.1340    -0.0790 os         1 2MK      -0.454100
      4 C29         -6.2590    -0.2840     0.5000 c3         1 2MK       0.231900
      5 C30         -7.2440     0.5410    -0.3170 ca         1 2MK      -0.101300
      6 C35         -7.5190     1.8770     0.0380 ca         1 2MK      -0.084000
      7 C34         -8.4290     2.6380    -0.7170 ca         1 2MK      -0.116500
      8 C33         -9.0690     2.0690    -1.8310 ca         1 2MK      -0.098000
      9 C32         -8.7960     0.7380    -2.1920 ca         1 2MK      -0.116500
     10 C31         -7.8860    -0.0240    -1.4380 ca         1 2MK      -0.084000
     11 N26         -2.7760    -0.5290    -0.1750 ns         1 2MK      -0.477900
     12 C25         -1.4330    -1.0570     0.1520 c3         1 2MK       0.052700
     13 C24         -0.3690     0.0680    -0.0080 c          1 2MK       0.585100
     14 O41         -0.5860     1.1150    -0.6060 o          1 2MK      -0.598100
     15 C37         -1.0840    -2.2860    -0.7370 c3         1 2MK      -0.089400
     16 C38         -1.9440    -3.5610    -0.5100 c3         1 2MK      -0.057700
     17 C39         -1.6560    -4.6200    -1.5990 c3         1 2MK      -0.090600
     18 C40         -1.7480    -4.1680     0.9000 c3         1 2MK      -0.090600
     19 N23          0.8520    -0.2020     0.5760 ns         1 2MK      -0.479900
     20 C22          2.0290     0.6970     0.5660 c3         1 2MK       0.034700
     21 C21          3.3140    -0.1190     0.2460 c          1 2MK       0.583100
     22 O46          3.3630    -1.3420     0.3030 o          1 2MK      -0.611100
     23 C42          2.1710     1.4430     1.9240 c3         1 2MK      -0.084400
     24 C43          1.0350     2.4460     2.2730 c3         1 2MK      -0.058700
     25 C44          1.1600     2.9330     3.7340 c3         1 2MK      -0.091100
     26 C45          0.9900     3.6520     1.3030 c3         1 2MK      -0.091100
     27 C1           6.7690     0.4040     0.6930 c3         1 2MK       0.157300
     28 O10          6.8660     1.8200     0.9430 oh         1 2MK      -0.642000
     29 C11          5.7410     0.1120    -0.4430 c3         1 2MK       0.073700
     30 C12          6.2110     0.6390    -1.8270 c3         1 2MK      -0.087400
     31 C47          5.7770     1.0090    -4.3170 c3         1 2MK      -0.086600
     32 C19          5.0630    -1.1890    -3.2520 c3         1 2MK      -0.086600
     33 N20          4.4070     0.6410    -0.1140 ns         1 2MK      -0.498900
     34 H38         -6.5690    -1.3380     0.4920 h1         1 2MK       0.056200
     35 H39         -6.2650     0.0610     1.5420 h1         1 2MK       0.056200
     36 H44         -7.0270     2.3260     0.8980 ha         1 2MK       0.115500
     37 H43         -8.6380     3.6680    -0.4380 ha         1 2MK       0.114500
     38 H42         -9.7730     2.6580    -2.4150 ha         1 2MK       0.112000
     39 H41         -9.2890     0.2970    -3.0550 ha         1 2MK       0.114500
     40 H40         -7.6780    -1.0520    -1.7250 ha         1 2MK       0.115500
     41 H37         -2.8680     0.1200    -0.9460 hn         1 2MK       0.335500
     42 H27         -1.4110    -1.3490     1.2090 h1         1 2MK       0.078700
     43 H28         -1.1670    -1.9800    -1.7880 hc         1 2MK       0.062200
     44 H29         -0.0300    -2.5540    -0.5850 hc         1 2MK       0.062200
     45 H30         -3.0010    -3.2850    -0.6110 hc         1 2MK       0.048700
     46 H34         -0.6090    -4.9470    -1.5600 hc         1 2MK       0.035700
     47 H35         -2.2950    -5.5010    -1.4630 hc         1 2MK       0.035700
     48 H36         -1.8520    -4.2140    -2.5980 hc         1 2MK       0.035700
     49 H31         -2.0430    -3.4620     1.6850 hc         1 2MK       0.035700
     50 H32         -2.3620    -5.0690     1.0210 hc         1 2MK       0.035700
     51 H33         -0.7000    -4.4450     1.0650 hc         1 2MK       0.035700
     52 H26          0.9580    -1.1100     1.0150 hn         1 2MK       0.322500
     53 H2           1.9220     1.4280    -0.2450 h1         1 2MK       0.079700
     54 H17          2.2390     0.6900     2.7200 hc         1 2MK       0.052700
     55 H18          3.1240     1.9850     1.9400 hc         1 2MK       0.052700
     56 H19          0.0760     1.9210     2.1950 hc         1 2MK       0.051700
     57 H23          2.1030     3.4720     3.8890 hc         1 2MK       0.036367
     58 H24          0.3340     3.6070     3.9910 hc         1 2MK       0.036367
     59 H25          1.1310     2.0860     4.4300 hc         1 2MK       0.036367
     60 H20          1.9350     4.2080     1.3270 hc         1 2MK       0.036367
     61 H21          0.8090     3.3310     0.2710 hc         1 2MK       0.036367
     62 H22          0.1830     4.3400     1.5810 hc         1 2MK       0.036367
     63 H1           4.2830     0.7630    -2.8080 hc         1 2MK       0.058700
     64 H5           7.7450     0.0130     0.3700 h1         1 2MK       0.089700
     65 H6           7.2460     1.8850     1.8480 ho         1 2MK       0.436000
     66 H7           5.6740    -0.9810    -0.5210 h1         1 2MK       0.084700
     67 H8           7.2030     0.2240    -2.0430 hc         1 2MK       0.052200
     68 H9           6.3410     1.7270    -1.7600 hc         1 2MK       0.052200
     69 H10          6.7600     0.6170    -4.6030 hc         1 2MK       0.033533
     70 H11          5.0820     0.8340    -5.1480 hc         1 2MK       0.033533
     71 H12          5.8660     2.0930    -4.1750 hc         1 2MK       0.033533
     72 H13          6.0230    -1.6930    -3.4150 hc         1 2MK       0.033533
     73 H14          4.5700    -1.6560    -2.3920 hc         1 2MK       0.033533
     74 H15          4.4300    -1.3670    -4.1290 hc         1 2MK       0.033533
     75 H16          4.2890     1.6470    -0.1080 hn         1 2MK       0.314500
     76 H45          7.1510    -0.4860     3.8440 ho         1 2MK       0.442000
     77 C13          5.2670     0.3280    -3.0250 c3         1 2MK      -0.063700
     78 C9           6.4140    -0.3050     2.0290 c3         1 2MK       0.129600
     79 O1           7.3830     0.0270     3.0380 oh         1 2MK      -0.651000
     80 H3           5.4100    -0.0000     2.3540 h1         1 2MK       0.028200
     81 H4           6.3950    -1.3910     1.8620 h1         1 2MK       0.028200
@<TRIPOS>BOND
     1     1     2 2   
     2     1     3 1   
     3     1    11 1   
     4     3     4 1   
     5     4     5 1   
     6     4    34 1   
     7     4    35 1   
     8     5     6 ar  
     9     5    10 ar  
    10     6     7 ar  
    11     6    36 1   
    12     7     8 ar  
    13     7    37 1   
    14     8     9 ar  
    15     8    38 1   
    16     9    10 ar  
    17     9    39 1   
    18    10    40 1   
    19    11    12 1   
    20    11    41 1   
    21    12    13 1   
    22    12    15 1   
    23    12    42 1   
    24    13    14 2   
    25    13    19 1   
    26    15    16 1   
    27    15    43 1   
    28    15    44 1   
    29    16    17 1   
    30    16    18 1   
    31    16    45 1   
    32    17    46 1   
    33    17    47 1   
    34    17    48 1   
    35    18    49 1   
    36    18    50 1   
    37    18    51 1   
    38    19    20 1   
    39    19    52 1   
    40    20    21 1   
    41    20    23 1   
    42    20    53 1   
    43    21    22 2   
    44    21    33 1   
    45    23    24 1   
    46    23    54 1   
    47    23    55 1   
    48    24    25 1   
    49    24    26 1   
    50    24    56 1   
    51    25    57 1   
    52    25    58 1   
    53    25    59 1   
    54    26    60 1   
    55    26    61 1   
    56    26    62 1   
    57    27    28 1   
    58    27    29 1   
    59    27    64 1   
    60    27    78 1   
    61    28    65 1   
    62    29    30 1   
    63    29    33 1   
    64    29    66 1   
    65    30    67 1   
    66    30    68 1   
    67    30    77 1   
    68    31    69 1   
    69    31    70 1   
    70    31    71 1   
    71    31    77 1   
    72    32    72 1   
    73    32    73 1   
    74    32    74 1   
    75    32    77 1   
    76    33    75 1   
    77    63    77 1   
    78    76    79 1   
    79    78    79 1   
    80    78    80 1   
    81    78    81 1   
@<TRIPOS>SUBSTRUCTURE
     1 2MK         1 TEMP              0 ****  ****    0 ROOT
