@<TRIPOS>MOLECULE
2ML
   24    23     1     0     0
SMALL
bcc


@<TRIPOS>ATOM
      1 N           62.6610     3.8890    14.0020 n8         1 2ML      -0.872800
      2 CA          64.0790     3.7950    14.3470 c3         1 2ML       0.034200
      3 CB1         64.8960     4.6660    13.3770 c3         1 2ML      -0.016400
      4 CB2         64.5720     2.3420    14.2110 c3         1 2ML      -0.098100
      5 CG          64.9040     6.1870    13.5610 c3         1 2ML      -0.052700
      6 CD1         65.8160     6.8120    12.5060 c3         1 2ML      -0.077600
      7 CD2         63.5280     6.8430    13.5100 c3         1 2ML      -0.077600
      8 C           64.3080     4.2210    15.8240 c          1 2ML       0.937600
      9 O           65.4990     4.3120    16.1860 o          1 2ML      -0.834300
     10 OXT         63.3020     4.3980    16.5400 o          1 2ML      -0.834300
     11 H2          62.1180     3.4470    14.7330 hn         1 2ML       0.318300
     12 H           62.4930     3.3550    13.1560 hn         1 2ML       0.318300
     13 HB11        65.9370     4.3340    13.4160 hc         1 2ML       0.010700
     14 HB12        64.5520     4.4400    12.3580 hc         1 2ML       0.010700
     15 HB21        65.6250     2.2340    14.4720 hc         1 2ML       0.015033
     16 HB22        63.9950     1.6740    14.8550 hc         1 2ML       0.015033
     17 HB23        64.4490     1.9930    13.1810 hc         1 2ML       0.015033
     18 HG          65.3410     6.4000    14.5410 hc         1 2ML       0.074700
     19 HD11        65.9020     7.8920    12.6430 hc         1 2ML       0.019200
     20 HD12        66.8240     6.3920    12.5440 hc         1 2ML       0.019200
     21 HD13        65.4250     6.6380    11.5000 hc         1 2ML       0.019200
     22 HD21        63.6210     7.9280    13.6010 hc         1 2ML       0.019200
     23 HD22        63.0280     6.6320    12.5610 hc         1 2ML       0.019200
     24 HD23        62.8800     6.4870    14.3060 hc         1 2ML       0.019200
@<TRIPOS>BOND
     1     1     2 1   
     2     1    11 1   
     3     1    12 1   
     4     2     3 1   
     5     2     4 1   
     6     2     8 1   
     7     3     5 1   
     8     3    13 1   
     9     3    14 1   
    10     4    15 1   
    11     4    16 1   
    12     4    17 1   
    13     5     6 1   
    14     5     7 1   
    15     5    18 1   
    16     6    19 1   
    17     6    20 1   
    18     6    21 1   
    19     7    22 1   
    20     7    23 1   
    21     7    24 1   
    22     8     9 1   
    23     8    10 1   
@<TRIPOS>SUBSTRUCTURE
     1 2ML         1 TEMP              0 ****  ****    0 ROOT
