@<TRIPOS>MOLECULE
2MM
   25    24     1     0     0
SMALL
No Charge or Current Charge


@<TRIPOS>ATOM
      1 CE           4.4270     0.3730    -0.5650 c3         1 2MM       0.043900
      2 SD           3.1820    -0.6610     0.3310 ss         1 2MM      -0.485000
      3 CG           1.6210     0.0620    -0.3550 c3         1 2MM       0.091600
      4 CB           0.3870    -0.6340     0.2530 c3         1 2MM      -0.050400
      5 CA          -0.9630    -0.1360    -0.3400 c3         1 2MM       0.060500
      6 C           -2.1550    -1.0540     0.1590 c          1 2MM       0.700000
      7 O           -2.2240    -1.3590     1.3440 o          1 2MM      -0.731000
      8 N           -1.1480     1.3620    -0.2260 n3         1 2MM      -0.754600
      9 CN2         -2.2630     1.8620    -1.0620 c3         1 2MM       0.185100
     10 CN1         -1.2390     1.8610     1.1680 c3         1 2MM       0.185100
     11 OXT         -2.9590    -1.4610    -0.6720 o          1 2MM      -0.731000
     12 HE           4.3130     0.2370    -1.6480 h1         1 2MM       0.046033
     13 HEA          4.2800     1.4320    -0.3170 h1         1 2MM       0.046033
     14 HEB          5.4400     0.0720    -0.2700 h1         1 2MM       0.046033
     15 HG           1.5950     1.1360    -0.1290 h1         1 2MM       0.053700
     16 HGA          1.6170    -0.0630    -1.4460 h1         1 2MM       0.053700
     17 HB           0.4710    -1.7110     0.0650 hc         1 2MM       0.056700
     18 HBA          0.3970    -0.5060     1.3410 hc         1 2MM       0.056700
     19 HA          -0.8860    -0.3570    -1.4130 h1         1 2MM       0.033700
     20 HN2         -3.2280     1.4860    -0.6950 h1         1 2MM       0.015367
     21 HN2A        -2.2940     2.9600    -1.0480 h1         1 2MM       0.015367
     22 HN2B        -2.1400     1.5410    -2.1050 h1         1 2MM       0.015367
     23 HN1         -0.3460     1.5930     1.7460 h1         1 2MM       0.015367
     24 HN1A        -1.3220     2.9560     1.1790 h1         1 2MM       0.015367
     25 HN1B        -2.1210     1.4490     1.6760 h1         1 2MM       0.015367
@<TRIPOS>BOND
     1     1     2 1   
     2     1    12 1   
     3     1    13 1   
     4     1    14 1   
     5     2     3 1   
     6     3     4 1   
     7     3    15 1   
     8     3    16 1   
     9     4     5 1   
    10     4    17 1   
    11     4    18 1   
    12     5     6 1   
    13     5     8 1   
    14     5    19 1   
    15     6     7 1   
    16     6    11 1   
    17     8     9 1   
    18     8    10 1   
    19     9    20 1   
    20     9    21 1   
    21     9    22 1   
    22    10    23 1   
    23    10    24 1   
    24    10    25 1   
@<TRIPOS>SUBSTRUCTURE
     1 2MM         1 TEMP              0 ****  ****    0 ROOT
