@<TRIPOS>MOLECULE
2MM
   25    24     1     0     0
SMALL
bcc


@<TRIPOS>ATOM
      1 CE           4.2810     0.4280    -0.6500 c3         1 2MM      -0.004000
      2 SD           3.1000    -0.6070     0.2410 ss         1 2MM      -0.389200
      3 CG           1.5430     0.0930    -0.3790 c3         1 2MM       0.043700
      4 CB           0.3630    -0.6640     0.2090 c3         1 2MM      -0.050400
      5 CA          -0.9790    -0.1540    -0.3290 c3         1 2MM       0.060500
      6 C           -2.1390    -1.0670     0.1570 c          1 2MM       0.910600
      7 O           -3.1310    -0.5350     0.6900 o          1 2MM      -0.836300
      8 N           -1.1190     1.2770    -0.1280 n3         1 2MM      -0.754600
      9 CN2         -2.1040     1.9020    -0.9770 c3         1 2MM       0.185100
     10 CN1         -1.2100     1.7340     1.2400 c3         1 2MM       0.185100
     11 OXT         -1.9840    -2.2890    -0.0530 o          1 2MM      -0.836300
     12 HE           4.1820     0.3000    -1.7270 h1         1 2MM       0.046033
     13 HEA          4.1510     1.4800    -0.4010 h1         1 2MM       0.046033
     14 HEB          5.2840     0.1230    -0.3550 h1         1 2MM       0.046033
     15 HG           1.4950     1.1510    -0.1220 h1         1 2MM       0.053700
     16 HGA          1.5300     0.0170    -1.4700 h1         1 2MM       0.053700
     17 HB           0.4440    -1.7220    -0.0410 hc         1 2MM       0.056700
     18 HBA          0.3930    -0.6070     1.3020 hc         1 2MM       0.056700
     19 HA          -0.9330    -0.2920    -1.4190 h1         1 2MM       0.033700
     20 HN2         -3.1410     1.6570    -0.7190 h1         1 2MM       0.015367
     21 HN2A        -1.9970     2.9890    -0.9270 h1         1 2MM       0.015367
     22 HN2B        -1.9390     1.6080    -2.0160 h1         1 2MM       0.015367
     23 HN1         -0.4290     1.2810     1.8530 h1         1 2MM       0.015367
     24 HN1A        -1.0450     2.8140     1.2740 h1         1 2MM       0.015367
     25 HN1B        -2.1720     1.5240     1.7180 h1         1 2MM       0.015367
@<TRIPOS>BOND
     1     1     2 1   
     2     1    12 1   
     3     1    13 1   
     4     1    14 1   
     5     2     3 1   
     6     3     4 1   
     7     3    15 1   
     8     3    16 1   
     9     4     5 1   
    10     4    17 1   
    11     4    18 1   
    12     5     6 1   
    13     5     8 1   
    14     5    19 1   
    15     6     7 1   
    16     6    11 1   
    17     8     9 1   
    18     8    10 1   
    19     9    20 1   
    20     9    21 1   
    21     9    22 1   
    22    10    23 1   
    23    10    24 1   
    24    10    25 1   
@<TRIPOS>SUBSTRUCTURE
     1 2MM         1 TEMP              0 ****  ****    0 ROOT
