@<TRIPOS>MOLECULE
2MN
   21    21     1     0     0
SMALL
bcc


@<TRIPOS>ATOM
      1 OHD          2.9160    -2.0820    -0.1030 oh         1 2MN      -0.592800
      2 CB6          1.9430    -1.1870    -0.5800 c3         1 2MN       0.126400
      3 CB5          1.3380    -0.5080     0.6390 c3         1 2MN       0.036300
      4 NC1          0.3040     0.4420     0.2560 na         1 2MN      -0.150900
      5 CC3          0.5170     1.7580     0.0520 cc         1 2MN       0.458800
      6 CA5          1.8350     2.4150     0.2260 c3         1 2MN      -0.136400
      7 NC4         -0.5900     2.3900    -0.3010 nd         1 2MN      -0.682000
      8 CC5         -1.5620     1.4640    -0.3310 cd         1 2MN       0.429200
      9 CC2         -1.0370     0.2420     0.0050 cc         1 2MN      -0.354800
     10 NO          -1.7240    -0.9820     0.0750 no         1 2MN       0.358200
     11 OB          -2.9220    -0.9470    -0.1120 o          1 2MN      -0.212500
     12 OA          -1.1050    -2.0010     0.3070 o          1 2MN      -0.212500
     13 HHD          3.3280    -2.5100    -0.8590 ho         1 2MN       0.418000
     14 HB6          2.3740    -0.4250    -1.2420 h1         1 2MN       0.034200
     15 H6           1.1560    -1.6960    -1.1470 h1         1 2MN       0.034200
     16 HB5          0.9230    -1.2370     1.3280 h1         1 2MN       0.088700
     17 H5           2.1050     0.0480     1.1770 h1         1 2MN       0.088700
     18 HA51         2.1620     2.3850     1.2670 hc         1 2MN       0.066700
     19 HA52         2.6110     1.9460    -0.3790 hc         1 2MN       0.066700
     20 HA53         1.7510     3.4560    -0.0730 hc         1 2MN       0.066700
     21 HC5         -2.5810     1.6980    -0.5930 h4         1 2MN       0.069100
@<TRIPOS>BOND
     1     1     2 1   
     2     1    13 1   
     3     2     3 1   
     4     2    14 1   
     5     2    15 1   
     6     3     4 1   
     7     3    16 1   
     8     3    17 1   
     9     4     5 1   
    10     4     9 1   
    11     5     6 1   
    12     5     7 2   
    13     6    18 1   
    14     6    19 1   
    15     6    20 1   
    16     7     8 1   
    17     8     9 2   
    18     8    21 1   
    19     9    10 1   
    20    10    11 1   
    21    10    12 1   
@<TRIPOS>SUBSTRUCTURE
     1 2MN         1 TEMP              0 ****  ****    0 ROOT
