@<TRIPOS>MOLECULE
2MN
   21    21     1     0     0
SMALL
No Charge or Current Charge


@<TRIPOS>ATOM
      1 OHD          3.0030    -2.1360    -0.1120 oh         1 2MN      -0.655000
      2 CB6          1.9750    -1.2400    -0.5580 c3         1 2MN       0.149600
      3 CB5          1.3410    -0.5180     0.6490 c3         1 2MN       0.065600
      4 NC1          0.3040     0.4650     0.2580 na         1 2MN      -0.129500
      5 CC3          0.5200     1.8200     0.0680 cc         1 2MN       0.458800
      6 CA5          1.8440     2.5120     0.2150 c3         1 2MN      -0.136400
      7 NC4         -0.5980     2.4390    -0.2630 nd         1 2MN      -0.682000
      8 CC5         -1.5700     1.4620    -0.2980 cd         1 2MN       0.363900
      9 CC2         -1.0520     0.2300     0.0090 cc         1 2MN      -0.340200
     10 NO          -1.7910    -1.0100     0.0530 no         1 2MN       0.738200
     11 OB          -3.0060    -0.9510    -0.1670 o          1 2MN      -0.402500
     12 OA          -1.1800    -2.0610     0.2660 o          1 2MN      -0.402500
     13 HHD          3.3620    -2.5840    -0.9110 ho         1 2MN       0.457000
     14 HB6          2.3950    -0.4900    -1.2430 h1         1 2MN       0.034200
     15 H6           1.1950    -1.7900    -1.1020 h1         1 2MN       0.034200
     16 HB5          0.9040    -1.2560     1.3320 h1         1 2MN       0.088700
     17 H5           2.1310    -0.0030     1.2070 h1         1 2MN       0.088700
     18 HA51         2.1820     2.4840     1.2570 hc         1 2MN       0.066700
     19 HA52         2.6060     2.0310    -0.4080 hc         1 2MN       0.066700
     20 HA53         1.7750     3.5630    -0.0890 hc         1 2MN       0.066700
     21 HC5         -2.5970     1.7020    -0.5500 h4         1 2MN       0.069100
@<TRIPOS>BOND
     1     1     2 1   
     2     1    13 1   
     3     2     3 1   
     4     2    14 1   
     5     2    15 1   
     6     3     4 1   
     7     3    16 1   
     8     3    17 1   
     9     4     5 1   
    10     4     9 1   
    11     5     6 1   
    12     5     7 2   
    13     6    18 1   
    14     6    19 1   
    15     6    20 1   
    16     7     8 1   
    17     8     9 2   
    18     8    21 1   
    19     9    10 1   
    20    10    11 1   
    21    10    12 1   
@<TRIPOS>SUBSTRUCTURE
     1 2MN         1 TEMP              0 ****  ****    0 ROOT
