@<TRIPOS>MOLECULE
2MP
   19    19     1     0     0
SMALL
No Charge or Current Charge


@<TRIPOS>ATOM
      1 O1          -0.2520    -0.1060    -2.9330 oh         1 2MP      -0.535100
      2 C1           0.0270    -0.0790    -1.6000 ca         1 2MP       0.136100
      3 C2           1.3590    -0.0970    -1.1670 ca         1 2MP      -0.146000
      4 C3           1.6510    -0.0700     0.2060 ca         1 2MP      -0.072000
      5 C4           0.6110    -0.0230     1.1570 ca         1 2MP      -0.113300
      6 C5          -0.7350    -0.0040     0.7180 ca         1 2MP      -0.033300
      7 C6          -1.0160    -0.0320    -0.6640 ca         1 2MP      -0.202000
      8 C7           0.9590     0.0060     2.6430 c3         1 2MP      -0.038800
      9 C8          -1.8900     0.0460     1.7140 c3         1 2MP      -0.048800
     10 HO1         -1.2260    -0.0870    -3.0450 ho         1 2MP       0.462000
     11 H2           2.1660    -0.1330    -1.8950 ha         1 2MP       0.128000
     12 H3           2.6900    -0.0850     0.5290 ha         1 2MP       0.112000
     13 H6          -2.0480    -0.0180    -1.0040 ha         1 2MP       0.109000
     14 H71          0.5730     0.9140     3.1210 hc         1 2MP       0.038700
     15 H72          0.5340    -0.8590     3.1650 hc         1 2MP       0.038700
     16 H73          2.0430    -0.0130     2.8080 hc         1 2MP       0.038700
     17 H81         -1.8760    -0.8250     2.3790 hc         1 2MP       0.042367
     18 H82         -1.8370     0.9480     2.3350 hc         1 2MP       0.042367
     19 H83         -2.8640     0.0550     1.2100 hc         1 2MP       0.042367
@<TRIPOS>BOND
     1     1     2 1   
     2     1    10 1   
     3     2     3 ar  
     4     2     7 ar  
     5     3     4 ar  
     6     3    11 1   
     7     4     5 ar  
     8     4    12 1   
     9     5     6 ar  
    10     5     8 1   
    11     6     7 ar  
    12     6     9 1   
    13     7    13 1   
    14     8    14 1   
    15     8    15 1   
    16     8    16 1   
    17     9    17 1   
    18     9    18 1   
    19     9    19 1   
@<TRIPOS>SUBSTRUCTURE
     1 2MP         1 TEMP              0 ****  ****    0 ROOT
