@<TRIPOS>MOLECULE
2MP
   19    19     1     0     0
SMALL
abcg2


@<TRIPOS>ATOM
      1 O1          -0.2280    -0.1070    -2.9160 oh         1 2MP      -0.535100
      2 C1           0.0150    -0.0780    -1.5870 ca         1 2MP       0.136100
      3 C2           1.3360    -0.0970    -1.1600 ca         1 2MP      -0.146000
      4 C3           1.6100    -0.0690     0.2000 ca         1 2MP      -0.072000
      5 C4           0.6020    -0.0210     1.1580 ca         1 2MP      -0.113300
      6 C5          -0.7290    -0.0030     0.7200 ca         1 2MP      -0.033300
      7 C6          -1.0070    -0.0310    -0.6420 ca         1 2MP      -0.202000
      8 C7           0.9350     0.0080     2.6220 c3         1 2MP      -0.038800
      9 C8          -1.8550     0.0450     1.7120 c3         1 2MP      -0.048800
     10 HO1         -1.1770    -0.0910    -3.0810 ho         1 2MP       0.462000
     11 H2           2.1420    -0.1340    -1.8830 ha         1 2MP       0.128000
     12 H3           2.6450    -0.0840     0.5220 ha         1 2MP       0.112000
     13 H6          -2.0420    -0.0170    -0.9730 ha         1 2MP       0.109000
     14 H71          0.5490     0.9050     3.1110 hc         1 2MP       0.038700
     15 H72          0.5100    -0.8460     3.1550 hc         1 2MP       0.038700
     16 H73          2.0130    -0.0130     2.7790 hc         1 2MP       0.038700
     17 H81         -1.8350    -0.8200     2.3780 hc         1 2MP       0.042367
     18 H82         -1.7910     0.9310     2.3460 hc         1 2MP       0.042367
     19 H83         -2.8240     0.0600     1.2160 hc         1 2MP       0.042367
@<TRIPOS>BOND
     1     1     2 1   
     2     1    10 1   
     3     2     3 ar  
     4     2     7 ar  
     5     3     4 ar  
     6     3    11 1   
     7     4     5 ar  
     8     4    12 1   
     9     5     6 ar  
    10     5     8 1   
    11     6     7 ar  
    12     6     9 1   
    13     7    13 1   
    14     8    14 1   
    15     8    15 1   
    16     8    16 1   
    17     9    17 1   
    18     9    18 1   
    19     9    19 1   
@<TRIPOS>SUBSTRUCTURE
     1 2MP         1 TEMP              0 ****  ****    0 ROOT
