@<TRIPOS>MOLECULE
2MQ
   35    37     1     0     0
SMALL
bcc


@<TRIPOS>ATOM
      1 C2           2.5870    -1.8490    -0.2060 c          1 2MQ       0.734100
      2 O19          2.8080    -3.0310    -0.4230 o          1 2MQ      -0.619500
      3 N3           3.6300    -0.9620    -0.0690 ns         1 2MQ      -0.521400
      4 C4           3.4670     0.3740     0.1850 cc         1 2MQ       0.707800
      5 N20          4.6010     1.1090     0.2480 nv         1 2MQ      -0.924800
      6 N5           2.3100     0.9290     0.3120 nd         1 2MQ      -0.711100
      7 C6           1.1920     0.1450     0.1800 ca         1 2MQ       0.226400
      8 C10         -0.0680     0.7660     0.3110 ca         1 2MQ      -0.099300
      9 C16         -0.2180     2.2390     0.5470 c3         1 2MQ      -0.015100
     10 C17         -0.3890     3.0140    -0.7580 c3         1 2MQ       0.149800
     11 N18         -0.5810     4.4300    -0.4890 n8         1 2MQ      -0.893800
     12 C9          -1.1630    -0.0590     0.1610 ca         1 2MQ      -0.030200
     13 N11         -2.5080     0.2140     0.2120 na         1 2MQ      -0.311300
     14 C12         -3.1720    -0.9660    -0.0020 cc         1 2MQ       0.673700
     15 N14         -4.5080    -1.0220    -0.0220 nu         1 2MQ      -0.864200
     16 C15         -5.3660     0.1120     0.2150 c3         1 2MQ       0.221100
     17 N13         -2.3650    -1.9820    -0.1890 nd         1 2MQ      -0.649100
     18 C8          -1.0990    -1.4510    -0.0950 ca         1 2MQ       0.079400
     19 C7           0.1350    -2.0490    -0.2110 ca         1 2MQ      -0.009000
     20 C1           1.2730    -1.2450    -0.0740 ca         1 2MQ      -0.234600
     21 HN3          4.5630    -1.3370    -0.1760 hn         1 2MQ       0.323500
     22 HN20         5.4730     0.6560     0.4690 hn         1 2MQ       0.430300
     23 HN2A         4.5020     2.0370     0.6270 hn         1 2MQ       0.430300
     24 H16         -1.0780     2.4370     1.1930 hc         1 2MQ       0.055200
     25 H16A         0.6590     2.6140     1.0770 hc         1 2MQ       0.055200
     26 H17          0.4690     2.7960    -1.4090 h1         1 2MQ       0.031700
     27 H17A        -1.2740     2.6430    -1.2820 h1         1 2MQ       0.031700
     28 HN18         0.2850     4.8270    -0.1460 hn         1 2MQ       0.336800
     29 HN1A        -0.7760     4.9150    -1.3560 hn         1 2MQ       0.336800
     30 HN11        -2.9300     1.1070     0.4100 hn         1 2MQ       0.309700
     31 HN14        -4.9190    -1.9320    -0.1430 hn         1 2MQ       0.466800
     32 H15         -5.1970     0.9080    -0.5130 h1         1 2MQ       0.038700
     33 H15A        -6.3970    -0.2120     0.1150 h1         1 2MQ       0.038700
     34 H15B        -5.2410     0.5270     1.2190 h1         1 2MQ       0.038700
     35 H7           0.2320    -3.1100    -0.4040 ha         1 2MQ       0.167000
@<TRIPOS>BOND
     1     1     2 2   
     2     1     3 1   
     3     1    20 1   
     4     3     4 1   
     5     3    21 1   
     6     4     5 1   
     7     4     6 2   
     8     5    22 1   
     9     5    23 1   
    10     6     7 1   
    11     7     8 ar  
    12     7    20 ar  
    13     8     9 1   
    14     8    12 ar  
    15     9    10 1   
    16     9    24 1   
    17     9    25 1   
    18    10    11 1   
    19    10    26 1   
    20    10    27 1   
    21    11    28 1   
    22    11    29 1   
    23    12    13 1   
    24    12    18 ar  
    25    13    14 1   
    26    13    30 1   
    27    14    15 1   
    28    14    17 2   
    29    15    16 1   
    30    15    31 1   
    31    16    32 1   
    32    16    33 1   
    33    16    34 1   
    34    17    18 1   
    35    18    19 ar  
    36    19    20 ar  
    37    19    35 1   
@<TRIPOS>SUBSTRUCTURE
     1 2MQ         1 TEMP              0 ****  ****    0 ROOT
