@<TRIPOS>MOLECULE
2MQ
   35    37     1     0     0
SMALL
No Charge or Current Charge


@<TRIPOS>ATOM
      1 C2           2.6340    -1.8500    -0.2350 c          1 2MQ       0.591600
      2 O19          2.8170    -3.0380    -0.4480 o          1 2MQ      -0.544000
      3 N3           3.6550    -0.9810    -0.1170 ns         1 2MQ      -0.454400
      4 C4           3.4880     0.3320     0.1070 cc         1 2MQ       0.707800
      5 N20          4.5960     1.0450     0.1960 nv         1 2MQ      -1.035200
      6 N5           2.3650     0.9850     0.2500 nd         1 2MQ      -0.711100
      7 C6           1.2180     0.1710     0.1530 ca         1 2MQ       0.226400
      8 C10         -0.0640     0.7770     0.2960 ca         1 2MQ      -0.099300
      9 C16         -0.2400     2.2800     0.5490 c3         1 2MQ      -0.015100
     10 C17         -0.2700     3.0870    -0.7670 c3         1 2MQ       0.149800
     11 N18         -0.5050     4.5280    -0.5330 n8         1 2MQ      -1.004200
     12 C9          -1.1910    -0.0540     0.1810 ca         1 2MQ      -0.030200
     13 N11         -2.5210     0.2390     0.2560 na         1 2MQ      -0.361600
     14 C12         -3.1920    -0.9470     0.0700 cc         1 2MQ       0.673700
     15 N14         -4.5340    -1.0810     0.0740 nu         1 2MQ      -0.919400
     16 C15         -5.5330    -0.0120     0.2170 c3         1 2MQ       0.221100
     17 N13         -2.3800    -1.9830    -0.1220 nd         1 2MQ      -0.649100
     18 C8          -1.1150    -1.3990    -0.0500 ca         1 2MQ       0.079400
     19 C7           0.1290    -2.0230    -0.1870 ca         1 2MQ       0.009000
     20 C1           1.2970    -1.2290    -0.0850 ca         1 2MQ      -0.234600
     21 HN3          4.5820    -1.3520    -0.2340 hn         1 2MQ       0.323500
     22 HN20         5.4140     0.5740     0.5600 hn         1 2MQ       0.485500
     23 HN2A         4.4480     1.9850     0.5420 hn         1 2MQ       0.485500
     24 H16         -1.1680     2.4650     1.1020 hc         1 2MQ       0.055200
     25 H16A         0.5620     2.6620     1.1920 hc         1 2MQ       0.055200
     26 H17          0.6860     2.9650    -1.2960 h1         1 2MQ       0.031700
     27 H17A        -1.0720     2.7020    -1.4110 h1         1 2MQ       0.031700
     28 HN18         0.2900     4.9140    -0.0110 hn         1 2MQ       0.392000
     29 HN1A        -0.4640     5.0230    -1.4330 hn         1 2MQ       0.392000
     30 HN11        -2.9500     1.1360     0.4150 hn         1 2MQ       0.360000
     31 HN14        -4.8430    -2.0340    -0.1090 hn         1 2MQ       0.522000
     32 H15         -5.4160     0.7330    -0.5810 h1         1 2MQ       0.038700
     33 H15A        -6.5480    -0.4270     0.1580 h1         1 2MQ       0.038700
     34 H15B        -5.4210     0.4920     1.1860 h1         1 2MQ       0.038700
     35 H7           0.1830    -3.0930    -0.3720 ha         1 2MQ       0.149000
@<TRIPOS>BOND
     1     1     2 2   
     2     1     3 1   
     3     1    20 1   
     4     3     4 1   
     5     3    21 1   
     6     4     5 1   
     7     4     6 2   
     8     5    22 1   
     9     5    23 1   
    10     6     7 1   
    11     7     8 ar  
    12     7    20 ar  
    13     8     9 1   
    14     8    12 ar  
    15     9    10 1   
    16     9    24 1   
    17     9    25 1   
    18    10    11 1   
    19    10    26 1   
    20    10    27 1   
    21    11    28 1   
    22    11    29 1   
    23    12    13 1   
    24    12    18 ar  
    25    13    14 1   
    26    13    30 1   
    27    14    15 1   
    28    14    17 2   
    29    15    16 1   
    30    15    31 1   
    31    16    32 1   
    32    16    33 1   
    33    16    34 1   
    34    17    18 1   
    35    18    19 ar  
    36    19    20 ar  
    37    19    35 1   
@<TRIPOS>SUBSTRUCTURE
     1 2MQ         1 TEMP              0 ****  ****    0 ROOT
