@<TRIPOS>MOLECULE
2MR
   31    30     1     0     0
SMALL
bcc


@<TRIPOS>ATOM
      1 N           31.0630    13.5420    12.1390 n8         1 2MR      -0.897800
      2 CA          32.0500    13.0180    11.2050 c3         1 2MR       0.023500
      3 CB          32.7920    14.1570    10.5110 c3         1 2MR      -0.049400
      4 CG          31.8880    15.0790     9.7030 c3         1 2MR      -0.088400
      5 CD          32.6840    16.1730     9.0080 c3         1 2MR       0.209800
      6 NE          31.8450    17.0460     8.2020 nu         1 2MR      -0.879200
      7 CZ          32.0190    18.4030     8.1130 c2         1 2MR       0.805100
      8 NH1         31.9070    19.1090     7.0500 n2         1 2MR      -0.764900
      9 CQ1         31.7730    18.4340     5.7820 c3         1 2MR       0.128100
     10 NH2         32.3320    19.0400     9.3020 nu         1 2MR      -0.801200
     11 CQ2         31.5200    18.7980    10.4840 c3         1 2MR       0.182100
     12 C           33.0320    12.0500    11.9200 c          1 2MR       0.929600
     13 O           34.0660    11.7490    11.2930 o          1 2MR      -0.834800
     14 OXT         32.6940    11.6250    13.0430 o          1 2MR      -0.834800
     15 H           30.8850    12.8270    12.8320 hn         1 2MR       0.327800
     16 H2          30.1880    13.7170    11.6630 hn         1 2MR       0.327800
     17 HA          31.5750    12.4130    10.4110 h1         1 2MR      -0.004300
     18 HB2         33.3260    14.7460    11.2650 hc         1 2MR       0.046200
     19 HB3         33.5500    13.7310     9.8510 hc         1 2MR       0.046200
     20 HG2         31.3420    14.4940     8.9540 hc         1 2MR       0.033700
     21 HG3         31.1360    15.5400    10.3480 hc         1 2MR       0.033700
     22 HD2         33.2180    16.7730     9.7440 h1         1 2MR       0.043200
     23 HD3         33.4540    15.7150     8.3750 h1         1 2MR       0.043200
     24 HE          31.5310    16.6130     7.3480 hn         1 2MR       0.403800
     25 HQ11        31.9440    19.1450     4.9730 h1         1 2MR       0.019367
     26 HQ12        32.4830    17.6090     5.6350 h1         1 2MR       0.019367
     27 HQ13        30.7700    18.0190     5.6210 h1         1 2MR       0.019367
     28 HH2         32.4570    20.0260     9.1260 hn         1 2MR       0.398800
     29 HQ21        31.8250    19.5020    11.2550 h1         1 2MR       0.039367
     30 HQ22        30.4470    18.9300    10.3090 h1         1 2MR       0.039367
     31 HQ23        31.6740    17.7980    10.8850 h1         1 2MR       0.039367
@<TRIPOS>BOND
     1     1     2 1   
     2     1    15 1   
     3     1    16 1   
     4     2     3 1   
     5     2    12 1   
     6     2    17 1   
     7     3     4 1   
     8     3    18 1   
     9     3    19 1   
    10     4     5 1   
    11     4    20 1   
    12     4    21 1   
    13     5     6 1   
    14     5    22 1   
    15     5    23 1   
    16     6     7 1   
    17     6    24 1   
    18     7     8 2   
    19     7    10 1   
    20     8     9 1   
    21     9    25 1   
    22     9    26 1   
    23     9    27 1   
    24    10    11 1   
    25    10    28 1   
    26    11    29 1   
    27    11    30 1   
    28    11    31 1   
    29    12    13 1   
    30    12    14 1   
@<TRIPOS>SUBSTRUCTURE
     1 2MR         1 TEMP              0 ****  ****    0 ROOT
