@<TRIPOS>MOLECULE
2MV
   79    82     1     0     0
SMALL
abcg2


@<TRIPOS>ATOM
      1 O26         -6.7230     2.9330     0.7360 oh         1 2MV      -0.661000
      2 C26         -7.4660     1.9660     0.0070 c3         1 2MV       0.185000
      3 C27         -8.3930     1.1950     0.9460 c3         1 2MV      -0.122100
      4 C28         -8.2950     2.6600    -1.0740 c3         1 2MV      -0.122100
      5 C25         -6.4480     1.0390    -0.6620 c3         1 2MV      -0.052400
      6 C23         -5.5230     0.2460     0.2540 c5         1 2MV      -0.090700
      7 C22         -4.6290    -0.7240    -0.5140 c5         1 2MV      -0.111400
      8 C24         -4.4710     1.0660     0.9970 c5         1 2MV       0.164600
      9 O20         -3.3680     0.2050     1.2280 os         1 2MV      -0.465000
     10 C20         -3.4650    -0.9900     0.4530 c5         1 2MV       0.196000
     11 C21         -3.8330    -2.1410     1.3900 c3         1 2MV      -0.100100
     12 C17         -2.1610    -1.2540    -0.3180 c5         1 2MV      -0.048700
     13 C13         -0.8600    -1.6450     0.4300 c5         1 2MV      -0.028000
     14 C18         -0.5350    -0.6880     1.5790 c3         1 2MV      -0.074100
     15 C12         -0.7740    -3.1000     0.9030 c6         1 2MV      -0.064400
     16 C11          0.6490    -3.4850     1.3080 c6         1 2MV      -0.070400
     17 C9           1.6810    -3.1900     0.2140 c6         1 2MV      -0.041200
     18 C16         -1.7330    -0.0710    -1.2270 c5         1 2MV      -0.074400
     19 C15         -0.1960    -0.1240    -1.3310 c5         1 2MV      -0.070400
     20 C14          0.1550    -1.4750    -0.7290 c5         1 2MV      -0.038500
     21 C8           1.5600    -1.7910    -0.3250 c2         1 2MV      -0.075400
     22 C7           2.5750    -0.9290    -0.4910 ce         1 2MV      -0.193000
     23 C6           3.9580    -1.1520    -0.1140 ce         1 2MV      -0.161000
     24 C5           5.0130    -0.3950    -0.4620 cf         1 2MV      -0.068200
     25 C10          4.9540     0.7720    -1.3600 cf         1 2MV      -0.124200
     26 C19          4.4020     0.7560    -2.5720 c2         1 2MV      -0.296000
     27 C1           5.6150     2.0160    -0.8150 c6         1 2MV       0.211500
     28 O1           4.8710     2.5180     0.2780 oh         1 2MV      -0.654000
     29 C4           6.3950    -0.6740     0.0580 c6         1 2MV      -0.073200
     30 C3           7.0410     0.5720     0.6680 c6         1 2MV       0.177300
     31 O3           8.3810     0.3160     1.0340 oh         1 2MV      -0.662000
     32 C2           7.0380     1.7280    -0.3320 c6         1 2MV      -0.044700
     33 C29          7.7040     2.9840     0.2230 c3         1 2MV      -0.076100
     34 HO26        -7.3460     3.5090     1.1930 ho         1 2MV       0.441000
     35 H27         -9.1480     1.8600     1.3740 hc         1 2MV       0.041200
     36 H27A        -8.9230     0.4030     0.4140 hc         1 2MV       0.041200
     37 H27B        -7.8460     0.7410     1.7730 hc         1 2MV       0.041200
     38 H28         -7.6550     3.2210    -1.7570 hc         1 2MV       0.041200
     39 H28A        -8.8640     1.9400    -1.6630 hc         1 2MV       0.041200
     40 H28B        -9.0090     3.3570    -0.6290 hc         1 2MV       0.041200
     41 H25         -7.0050     0.3320    -1.2850 hc         1 2MV       0.047700
     42 H25A        -5.8340     1.6320    -1.3520 hc         1 2MV       0.047700
     43 H23         -6.1220    -0.3190     0.9750 hc         1 2MV       0.055700
     44 H22         -5.1420    -1.6430    -0.8040 hc         1 2MV       0.052700
     45 H22A        -4.2810    -0.2420    -1.4330 hc         1 2MV       0.052700
     46 H24         -4.1570     1.9240     0.3880 h1         1 2MV       0.051200
     47 H24A        -4.8270     1.4530     1.9530 h1         1 2MV       0.051200
     48 H21         -3.8000    -3.1000     0.8720 hc         1 2MV       0.039700
     49 H21A        -3.1590    -2.1960     2.2440 hc         1 2MV       0.039700
     50 H21B        -4.8440    -2.0110     1.7810 hc         1 2MV       0.039700
     51 H17         -2.3870    -2.1060    -0.9730 hc         1 2MV       0.041700
     52 H18         -1.1990    -0.8550     2.4280 hc         1 2MV       0.038367
     53 H18A         0.4880    -0.8240     1.9310 hc         1 2MV       0.038367
     54 H18B        -0.6400     0.3580     1.2930 hc         1 2MV       0.038367
     55 H12         -1.4460    -3.2880     1.7420 hc         1 2MV       0.038700
     56 H12A        -1.1090    -3.7540     0.0890 hc         1 2MV       0.038700
     57 H11          0.9340    -2.9590     2.2220 hc         1 2MV       0.040700
     58 H11A         0.6820    -4.5500     1.5520 hc         1 2MV       0.040700
     59 H9           2.6830    -3.4050     0.5850 hc         1 2MV       0.044700
     60 H9A          1.5120    -3.8850    -0.6180 hc         1 2MV       0.044700
     61 H16         -2.1920    -0.1570    -2.2120 hc         1 2MV       0.044700
     62 H16A        -2.0590     0.8840    -0.8130 hc         1 2MV       0.044700
     63 H15          0.1570    -0.0220    -2.3590 hc         1 2MV       0.044200
     64 H15A         0.2580     0.6890    -0.7600 hc         1 2MV       0.044200
     65 H14         -0.1210    -2.2410    -1.4720 hc         1 2MV       0.048700
     66 H7           2.3550     0.0310    -0.9450 ha         1 2MV       0.175000
     67 H6           4.1650    -1.9920     0.5420 ha         1 2MV       0.169000
     68 H19          3.9430    -0.1340    -2.9820 ha         1 2MV       0.168000
     69 H19A         4.4070     1.6380    -3.2010 ha         1 2MV       0.168000
     70 H1           5.6740     2.7640    -1.6190 h1         1 2MV       0.034700
     71 HO1          3.9710     2.6820    -0.0220 ho         1 2MV       0.444000
     72 H4           6.3670    -1.4800     0.7970 hc         1 2MV       0.051200
     73 H4A          7.0340    -1.0120    -0.7680 hc         1 2MV       0.051200
     74 H3           6.4570     0.8710     1.5510 h1         1 2MV       0.050700
     75 HO3          8.3800    -0.3460     1.7330 ho         1 2MV       0.441000
     76 H2           7.5960     1.4000    -1.2180 hc         1 2MV       0.058700
     77 H29          7.2300     3.3100     1.1490 hc         1 2MV       0.039367
     78 H29A         8.7590     2.8150     0.4270 hc         1 2MV       0.039367
     79 H29B         7.6380     3.8040    -0.4940 hc         1 2MV       0.039367
@<TRIPOS>BOND
     1     1     2 1   
     2     1    34 1   
     3     2     3 1   
     4     2     4 1   
     5     2     5 1   
     6     3    35 1   
     7     3    36 1   
     8     3    37 1   
     9     4    38 1   
    10     4    39 1   
    11     4    40 1   
    12     5     6 1   
    13     5    41 1   
    14     5    42 1   
    15     6     7 1   
    16     6     8 1   
    17     6    43 1   
    18     7    10 1   
    19     7    44 1   
    20     7    45 1   
    21     8     9 1   
    22     8    46 1   
    23     8    47 1   
    24     9    10 1   
    25    10    11 1   
    26    10    12 1   
    27    11    48 1   
    28    11    49 1   
    29    11    50 1   
    30    12    13 1   
    31    12    18 1   
    32    12    51 1   
    33    13    14 1   
    34    13    15 1   
    35    13    20 1   
    36    14    52 1   
    37    14    53 1   
    38    14    54 1   
    39    15    16 1   
    40    15    55 1   
    41    15    56 1   
    42    16    17 1   
    43    16    57 1   
    44    16    58 1   
    45    17    21 1   
    46    17    59 1   
    47    17    60 1   
    48    18    19 1   
    49    18    61 1   
    50    18    62 1   
    51    19    20 1   
    52    19    63 1   
    53    19    64 1   
    54    20    21 1   
    55    20    65 1   
    56    21    22 2   
    57    22    23 1   
    58    22    66 1   
    59    23    24 2   
    60    23    67 1   
    61    24    25 1   
    62    24    29 1   
    63    25    26 2   
    64    25    27 1   
    65    26    68 1   
    66    26    69 1   
    67    27    28 1   
    68    27    32 1   
    69    27    70 1   
    70    28    71 1   
    71    29    30 1   
    72    29    72 1   
    73    29    73 1   
    74    30    31 1   
    75    30    32 1   
    76    30    74 1   
    77    31    75 1   
    78    32    33 1   
    79    32    76 1   
    80    33    77 1   
    81    33    78 1   
    82    33    79 1   
@<TRIPOS>SUBSTRUCTURE
     1 2MV         1 TEMP              0 ****  ****    0 ROOT
