@<TRIPOS>MOLECULE
2MV
   79    82     1     0     0
SMALL
No Charge or Current Charge


@<TRIPOS>ATOM
      1 O26         -6.8310     3.0420     0.5230 oh         1 2MV      -0.661000
      2 C26         -7.5880     1.9710    -0.0400 c3         1 2MV       0.185000
      3 C27         -8.3930     1.3040     1.1010 c3         1 2MV      -0.122100
      4 C28         -8.5530     2.5950    -1.0740 c3         1 2MV      -0.122100
      5 C25         -6.6200     0.9720    -0.7500 c3         1 2MV      -0.052400
      6 C23         -5.6060     0.1870     0.1320 c5         1 2MV      -0.090700
      7 C22         -4.6510    -0.7300    -0.6780 c5         1 2MV      -0.111400
      8 C24         -4.5410     1.0350     0.8680 c5         1 2MV       0.164600
      9 O20         -3.5190     0.0880     1.2640 os         1 2MV      -0.465000
     10 C20         -3.5560    -1.0750     0.3960 c5         1 2MV       0.196000
     11 C21         -3.9790    -2.2960     1.2540 c3         1 2MV      -0.100100
     12 C17         -2.1780    -1.2450    -0.4100 c5         1 2MV      -0.048700
     13 C13         -0.9330    -1.6650     0.4700 c5         1 2MV      -0.028000
     14 C18         -0.6900    -0.7970     1.7520 c3         1 2MV      -0.074100
     15 C12         -0.8110    -3.1920     0.8770 c6         1 2MV      -0.064400
     16 C11          0.6310    -3.6390     1.3500 c6         1 2MV      -0.070400
     17 C9           1.7390    -3.2540     0.3280 c6         1 2MV      -0.041200
     18 C16         -1.6890     0.1400    -1.0580 c5         1 2MV      -0.074400
     19 C15         -0.1230     0.0440    -1.0820 c5         1 2MV      -0.070400
     20 C14          0.1520    -1.4340    -0.6670 c5         1 2MV      -0.038500
     21 C8           1.5990    -1.8200    -0.2050 c2         1 2MV      -0.075400
     22 C7           2.6080    -0.9250    -0.3920 ce         1 2MV      -0.193000
     23 C6           4.0280    -1.1340    -0.0510 ce         1 2MV      -0.161000
     24 C5           5.0780    -0.3400    -0.4250 cf         1 2MV      -0.068200
     25 C10          4.9860     0.8360    -1.3000 cf         1 2MV      -0.124200
     26 C19          4.2950     0.8340    -2.4650 c2         1 2MV      -0.296000
     27 C1           5.7620     2.0890    -0.8520 c6         1 2MV       0.211500
     28 O1           5.0770     2.7540     0.2130 oh         1 2MV      -0.654000
     29 C4           6.4950    -0.6590     0.0890 c6         1 2MV      -0.073200
     30 C3           7.2270     0.5980     0.6220 c6         1 2MV       0.177300
     31 O3           8.5700     0.2410     0.9820 oh         1 2MV      -0.662000
     32 C2           7.2210     1.7290    -0.4450 c6         1 2MV      -0.044700
     33 C29          8.0280     2.9900    -0.0030 c3         1 2MV      -0.076100
     34 HO26        -7.4750     3.6680     0.9180 ho         1 2MV       0.441000
     35 H27         -9.1260     2.0010     1.5250 hc         1 2MV       0.041200
     36 H27A        -8.9360     0.4270     0.7300 hc         1 2MV       0.041200
     37 H27B        -7.7360     0.9800     1.9170 hc         1 2MV       0.041200
     38 H28         -7.9980     3.1060    -1.8710 hc         1 2MV       0.041200
     39 H28A        -9.1770     1.8220    -1.5380 hc         1 2MV       0.041200
     40 H28B        -9.2210     3.3280    -0.6030 hc         1 2MV       0.041200
     41 H25         -7.2310     0.2430    -1.2960 hc         1 2MV       0.047700
     42 H25A        -6.0670     1.5240    -1.5210 hc         1 2MV       0.047700
     43 H23         -6.1880    -0.4020     0.8490 hc         1 2MV       0.055700
     44 H22         -5.1590    -1.6240    -1.0570 hc         1 2MV       0.052700
     45 H22A        -4.2590    -0.2040    -1.5540 hc         1 2MV       0.052700
     46 H24         -4.0940     1.7840     0.2010 h1         1 2MV       0.051200
     47 H24A        -4.9370     1.5460     1.7550 h1         1 2MV       0.051200
     48 H21         -3.8500    -3.2310     0.6980 hc         1 2MV       0.039700
     49 H21A        -3.3940    -2.3590     2.1770 hc         1 2MV       0.039700
     50 H21B        -5.0310    -2.2410     1.5560 hc         1 2MV       0.039700
     51 H17         -2.3310    -1.9860    -1.2050 hc         1 2MV       0.041700
     52 H18         -1.3640    -1.0930     2.5650 hc         1 2MV       0.038367
     53 H18A         0.3330    -0.9030     2.1280 hc         1 2MV       0.038367
     54 H18B        -0.8510     0.2720     1.5820 hc         1 2MV       0.038367
     55 H12         -1.5180    -3.4390     1.6770 hc         1 2MV       0.038700
     56 H12A        -1.1040    -3.8150     0.0210 hc         1 2MV       0.038700
     57 H11          0.8580    -3.1760     2.3200 hc         1 2MV       0.040700
     58 H11A         0.6470    -4.7230     1.5230 hc         1 2MV       0.040700
     59 H9           2.7170    -3.4340     0.7880 hc         1 2MV       0.044700
     60 H9A          1.6810    -3.9420    -0.5270 hc         1 2MV       0.044700
     61 H16         -2.0740     0.3440    -2.0760 hc         1 2MV       0.044700
     62 H16A        -1.9770     1.0120    -0.4630 hc         1 2MV       0.044700
     63 H15          0.2860     0.2730    -2.0730 hc         1 2MV       0.044200
     64 H15A         0.3140     0.7640    -0.3810 hc         1 2MV       0.044200
     65 H14         -0.0680    -2.0770    -1.5300 hc         1 2MV       0.048700
     66 H7           2.3990     0.0490    -0.8260 ha         1 2MV       0.175000
     67 H6           4.2580    -1.9840     0.5890 ha         1 2MV       0.169000
     68 H19          3.7700    -0.0570    -2.8100 ha         1 2MV       0.168000
     69 H19A         4.2540     1.7160    -3.1050 ha         1 2MV       0.168000
     70 H1           5.8260     2.7740    -1.7110 h1         1 2MV       0.034700
     71 HO1          4.1270     2.7380    -0.0320 ho         1 2MV       0.444000
     72 H4           6.4540    -1.4180     0.8810 hc         1 2MV       0.051200
     73 H4A          7.0720    -1.1040    -0.7330 hc         1 2MV       0.051200
     74 H3           6.6890     0.9590     1.5120 h1         1 2MV       0.050700
     75 HO3          8.5030    -0.4150     1.7100 ho         1 2MV       0.441000
     76 H2           7.7290     1.3520    -1.3440 hc         1 2MV       0.058700
     77 H29          7.6540     3.3960     0.9440 hc         1 2MV       0.039367
     78 H29A         9.0910     2.7590     0.1310 hc         1 2MV       0.039367
     79 H29B         7.9620     3.7840    -0.7570 hc         1 2MV       0.039367
@<TRIPOS>BOND
     1     1     2 1   
     2     1    34 1   
     3     2     3 1   
     4     2     4 1   
     5     2     5 1   
     6     3    35 1   
     7     3    36 1   
     8     3    37 1   
     9     4    38 1   
    10     4    39 1   
    11     4    40 1   
    12     5     6 1   
    13     5    41 1   
    14     5    42 1   
    15     6     7 1   
    16     6     8 1   
    17     6    43 1   
    18     7    10 1   
    19     7    44 1   
    20     7    45 1   
    21     8     9 1   
    22     8    46 1   
    23     8    47 1   
    24     9    10 1   
    25    10    11 1   
    26    10    12 1   
    27    11    48 1   
    28    11    49 1   
    29    11    50 1   
    30    12    13 1   
    31    12    18 1   
    32    12    51 1   
    33    13    14 1   
    34    13    15 1   
    35    13    20 1   
    36    14    52 1   
    37    14    53 1   
    38    14    54 1   
    39    15    16 1   
    40    15    55 1   
    41    15    56 1   
    42    16    17 1   
    43    16    57 1   
    44    16    58 1   
    45    17    21 1   
    46    17    59 1   
    47    17    60 1   
    48    18    19 1   
    49    18    61 1   
    50    18    62 1   
    51    19    20 1   
    52    19    63 1   
    53    19    64 1   
    54    20    21 1   
    55    20    65 1   
    56    21    22 2   
    57    22    23 1   
    58    22    66 1   
    59    23    24 2   
    60    23    67 1   
    61    24    25 1   
    62    24    29 1   
    63    25    26 2   
    64    25    27 1   
    65    26    68 1   
    66    26    69 1   
    67    27    28 1   
    68    27    32 1   
    69    27    70 1   
    70    28    71 1   
    71    29    30 1   
    72    29    72 1   
    73    29    73 1   
    74    30    31 1   
    75    30    32 1   
    76    30    74 1   
    77    31    75 1   
    78    32    33 1   
    79    32    76 1   
    80    33    77 1   
    81    33    78 1   
    82    33    79 1   
@<TRIPOS>SUBSTRUCTURE
     1 2MV         1 TEMP              0 ****  ****    0 ROOT
