@<TRIPOS>MOLECULE
2MX
  135   140     1     0     0
SMALL
abcg2


@<TRIPOS>ATOM
      1 C          -11.8250    -4.4060    -0.4320 c          1 2MX       0.718000
      2 N          -11.6490    -1.9830    -1.0240 ns         1 2MX      -0.454900
      3 OXT        -11.3250    -5.5410    -0.5670 o          1 2MX      -0.722000
      4 N1         -16.2960     3.3500     4.5980 nb         1 2MX      -0.286500
      5 C2         -16.9360     2.2200     4.8670 ca         1 2MX       0.450900
      6 N2         -17.2770     1.9910     6.1430 nv         1 2MX      -1.070400
      7 N3         -17.3040     1.2560     3.9920 nb         1 2MX      -0.354000
      8 C4         -17.0170     1.4420     2.7240 ca         1 2MX       0.468400
      9 N4         -17.3460     0.5320     1.8150 nv         1 2MX      -1.045400
     10 N5         -16.0550     2.8380     1.0140 nb         1 2MX      -0.586500
     11 C6         -15.4220     3.9380     0.6940 ca         1 2MX       0.210800
     12 C7         -15.0680     4.8610     1.7030 ca         1 2MX       0.085900
     13 N8         -15.3440     4.6870     2.9700 nb         1 2MX      -0.118500
     14 C9         -15.0900     4.2040    -0.7550 c3         1 2MX       0.189500
     15 CA         -10.9420    -3.2400    -0.9530 c3         1 2MX      -0.047800
     16 CB          -9.7100    -3.0790    -0.0640 c3         1 2MX      -0.065900
     17 CD          -7.5250    -1.8850     0.3190 c          1 2MX       0.597100
     18 CG          -8.7130    -2.0570    -0.6020 c3         1 2MX      -0.154900
     19 N10        -15.4930     3.1500    -1.6430 nh         1 2MX      -0.806900
     20 C4A        -16.3360     2.6400     2.3000 ca         1 2MX       0.033000
     21 C8A        -15.9970     3.5550     3.3090 ca         1 2MX       0.114000
     22 CAA        -16.8640     3.1720    -2.1040 c3         1 2MX       0.217100
     23 CAB         18.0570    -1.6570    -0.9570 c3         1 2MX       0.217100
     24 OAH          7.3940     0.4740     0.3210 o          1 2MX      -0.620100
     25 OAK        -12.8170    -2.5180    -2.8800 o          1 2MX      -0.615600
     26 OAL         12.2440     0.1800    -4.4740 o          1 2MX      -0.615600
     27 CAO        -12.8340     0.6460    -1.1320 ca         1 2MX      -0.037750
     28 CAP        -14.5640    -0.3190    -2.4530 ca         1 2MX      -0.037750
     29 CAQ         14.6490    -0.3670    -3.0400 ca         1 2MX      -0.037750
     30 CAR         13.2510    -1.0420    -1.2350 ca         1 2MX      -0.037750
     31 CAS        -13.5390     1.8300    -1.0530 ca         1 2MX      -0.199750
     32 CAT        -15.2900     0.8530    -2.3720 ca         1 2MX      -0.199750
     33 CAU         15.7570    -0.8520    -2.3740 ca         1 2MX      -0.199750
     34 CAV         14.3450    -1.5510    -0.5640 ca         1 2MX      -0.199750
     35 CAX         16.5020    -1.7330     3.2750 ca         1 2MX       0.085900
     36 CAY         -0.0530    -1.3380     0.1130 c3         1 2MX      -0.075400
     37 CAZ         -1.3650    -1.4900    -0.6480 c3         1 2MX      -0.074900
     38 CBA          1.1710    -1.3000    -0.7940 c3         1 2MX      -0.074900
     39 CBB         -2.5800    -1.5160     0.2700 c3         1 2MX      -0.072900
     40 CBC          2.4750    -1.1490    -0.0220 c3         1 2MX      -0.072900
     41 CBD         -3.8940    -1.6750    -0.4840 c3         1 2MX      -0.094900
     42 CBE          3.7000    -1.0880    -0.9250 c3         1 2MX      -0.094900
     43 CBF         -5.0860    -1.6950     0.4590 c3         1 2MX       0.104000
     44 CBG          4.9850    -0.9330    -0.1260 c3         1 2MX       0.104000
     45 CBI          8.3510    -0.2470    -1.7520 c3         1 2MX      -0.154900
     46 CBK          8.8470     1.1430    -2.1400 c3         1 2MX      -0.065900
     47 CBM         16.6310    -2.5020     0.8540 c3         1 2MX       0.189500
     48 NBO         16.4440    -0.8330     4.2220 nb         1 2MX      -0.118500
     49 NBQ         16.4380     3.0820     3.0690 nb         1 2MX      -0.354000
     50 NBS         16.3820     1.4080     4.7900 nb         1 2MX      -0.286500
     51 NBU         16.5830    -0.1620     1.5240 nb         1 2MX      -0.586500
     52 NBW          6.1400    -0.8640    -0.9950 ns         1 2MX      -0.515400
     53 NBY         11.1400     0.4560    -2.5260 ns         1 2MX      -0.454900
     54 CCA          7.2560    -0.1760    -0.7100 c          1 2MX       0.597100
     55 CCC         10.3310     2.5660    -3.5930 c          1 2MX       0.718000
     56 CCD        -12.5900    -1.7440    -1.9560 c          1 2MX       0.610700
     57 CCE         12.2170     0.0990    -3.2510 c          1 2MX       0.610700
     58 CCG         16.3810     2.6600     4.3530 ca         1 2MX       0.450900
     59 CCI         16.5050     2.1680     2.1290 ca         1 2MX       0.468400
     60 CCK         16.5720    -1.4150     1.9000 ca         1 2MX       0.210800
     61 CCL        -13.3270    -0.4580    -1.8280 ca         1 2MX      -0.165600
     62 CCM         13.3730    -0.4370    -2.4860 ca         1 2MX      -0.165600
     63 CCN        -14.7930     1.9720    -1.6770 ca         1 2MX       0.328500
     64 CCO         15.6370    -1.4760    -1.1180 ca         1 2MX       0.328500
     65 CCQ         16.4470     0.4630     3.8430 ca         1 2MX       0.114000
     66 CCS         16.5170     0.7680     2.4750 ca         1 2MX       0.033000
     67 CCU         10.0090     1.1190    -3.1310 c3         1 2MX      -0.047800
     68 NCW         16.7330    -2.0090    -0.4910 nh         1 2MX      -0.806900
     69 OE1         -7.6570    -1.7500     1.5300 o          1 2MX      -0.620100
     70 NE2         -6.3230    -1.8730    -0.2740 ns         1 2MX      -0.515400
     71 O          -12.9150    -4.1180     0.0870 o          1 2MX      -0.722000
     72 HN         -11.6940    -1.4480    -0.1720 hn         1 2MX       0.295500
     73 HN2        -16.9640     2.6120     6.8670 hn         1 2MX       0.502500
     74 HN2A       -17.6710     1.1060     6.4080 hn         1 2MX       0.502500
     75 HN4        -17.8210    -0.3140     2.0790 hn         1 2MX       0.518000
     76 HN4A       -17.1050     0.6740     0.8480 hn         1 2MX       0.518000
     77 H7         -14.5390     5.7710     1.4340 h4         1 2MX       0.021100
     78 H9         -15.5810     5.1270    -1.0710 h1         1 2MX       0.057700
     79 H9A        -14.0210     4.4090    -0.8570 h1         1 2MX       0.057700
     80 HA         -10.6060    -3.4980    -1.9610 h1         1 2MX       0.060200
     81 HB         -10.0210    -2.7980     0.9460 hc         1 2MX       0.062700
     82 HBA         -9.2240    -4.0530     0.0170 hc         1 2MX       0.062700
     83 HG          -8.3930    -2.3450    -1.6070 hc         1 2MX       0.049700
     84 HGA         -9.1920    -1.0790    -0.7010 hc         1 2MX       0.049700
     85 HAA        -16.9330     2.9370    -3.1670 h1         1 2MX       0.030367
     86 HAAA       -17.5050     2.4760    -1.5550 h1         1 2MX       0.030367
     87 HAAB       -17.2660     4.1730    -1.9680 h1         1 2MX       0.030367
     88 HAB         18.2260    -1.9960    -1.9800 h1         1 2MX       0.030367
     89 HABA        18.2420    -0.5800    -0.9160 h1         1 2MX       0.030367
     90 HABB        18.7970    -2.1510    -0.3320 h1         1 2MX       0.030367
     91 HNAD        16.3730     4.5970     4.9930 hn         1 2MX       0.502500
     92 HNAA        16.3320     3.4110     6.2480 hn         1 2MX       0.502500
     93 HNAF        16.5410     3.4820     0.5740 hn         1 2MX       0.518000
     94 HNAB        16.5980     1.8060     0.1360 hn         1 2MX       0.518000
     95 HAO        -11.8640     0.6100    -0.6510 ha         1 2MX       0.123250
     96 HAP        -14.9800    -1.1490    -3.0080 ha         1 2MX       0.123250
     97 HAQ         14.7880     0.0900    -4.0120 ha         1 2MX       0.123250
     98 HAR         12.2800    -1.1470    -0.7660 ha         1 2MX       0.123250
     99 HAS        -13.0950     2.6420    -0.4970 ha         1 2MX       0.102250
    100 HAT        -16.2530     0.8910    -2.8610 ha         1 2MX       0.102250
    101 HAU         16.7210    -0.7480    -2.8500 ha         1 2MX       0.102250
    102 HAV         14.1740    -2.0060     0.4010 ha         1 2MX       0.102250
    103 HAY         -0.0860    -0.4220     0.7130 hc         1 2MX       0.037200
    104 HAYA         0.0500    -2.1640     0.8250 hc         1 2MX       0.037200
    105 HAZ         -1.4680    -0.6670    -1.3640 hc         1 2MX       0.037700
    106 HAZA        -1.3370    -2.4090    -1.2430 hc         1 2MX       0.037700
    107 HBAA         1.2060    -2.2150    -1.3970 hc         1 2MX       0.037700
    108 HBAB         1.0700    -0.4720    -1.5040 hc         1 2MX       0.037700
    109 HBB         -2.4720    -2.3350     0.9890 hc         1 2MX       0.039450
    110 HBBA        -2.6080    -0.5940     0.8600 hc         1 2MX       0.039450
    111 HBC          2.4310    -0.2410     0.5900 hc         1 2MX       0.039450
    112 HBCA         2.5800    -1.9830     0.6800 hc         1 2MX       0.039450
    113 HBD         -4.0080    -0.8560    -1.2020 hc         1 2MX       0.042450
    114 HBDA        -3.8730    -2.6030    -1.0660 hc         1 2MX       0.042450
    115 HBE          3.7500    -1.9980    -1.5340 hc         1 2MX       0.042450
    116 HBEA         3.6050    -0.2500    -1.6220 hc         1 2MX       0.042450
    117 HBF         -4.9650    -2.5030     1.1870 h1         1 2MX       0.046450
    118 HBFA        -5.1210    -0.7620     1.0280 h1         1 2MX       0.046450
    119 HBG          4.9440    -0.0200     0.4680 h1         1 2MX       0.046450
    120 HBI          8.0160    -0.7840    -2.6430 hc         1 2MX       0.049700
    121 HBIA         9.1700    -0.8340    -1.3260 hc         1 2MX       0.049700
    122 HBK          8.0290     1.7040    -2.5950 hc         1 2MX       0.062700
    123 HBKA         9.1460     1.6930    -1.2440 hc         1 2MX       0.062700
    124 HBM         17.4920    -3.1450     1.0500 h1         1 2MX       0.057700
    125 HBMA        15.7630    -3.1590     0.9560 h1         1 2MX       0.057700
    126 HNBY        11.2830     0.6240    -1.5420 hn         1 2MX       0.295500
    127 HCU          9.7050     0.5430    -4.0100 h1         1 2MX       0.060200
    128 HNE2        -6.2690    -2.0040    -1.2710 hn         1 2MX       0.309500
    129 H61          5.0850    -1.7660     0.5800 h1         1 2MX       0.046450
    130 H62          6.1210    -1.4160    -1.8370 hn         1 2MX       0.309500
    131 OAN         11.3540     3.1020    -3.1350 o          1 2MX      -0.722000
    132 NAD         16.3020     3.6350     5.2700 nv         1 2MX      -1.070400
    133 NAF         16.5600     2.5150     0.8480 nv         1 2MX      -1.045400
    134 OAJ          9.4930     3.0690    -4.3670 o          1 2MX      -0.722000
    135 HAX         16.4970    -2.7750     3.5840 h4         1 2MX       0.021100
@<TRIPOS>BOND
     1     1     3 1   
     2     1    15 1   
     3     1    71 1   
     4     2    15 1   
     5     2    56 1   
     6     2    72 1   
     7     4     5 ar  
     8     4    21 ar  
     9     5     6 1   
    10     5     7 ar  
    11     6    73 1   
    12     6    74 1   
    13     7     8 ar  
    14     8     9 1   
    15     8    20 ar  
    16     9    75 1   
    17     9    76 1   
    18    10    11 ar  
    19    10    20 ar  
    20    11    12 ar  
    21    11    14 1   
    22    12    13 ar  
    23    12    77 1   
    24    13    21 ar  
    25    14    19 1   
    26    14    78 1   
    27    14    79 1   
    28    15    16 1   
    29    15    80 1   
    30    16    18 1   
    31    16    81 1   
    32    16    82 1   
    33    17    18 1   
    34    17    69 2   
    35    17    70 1   
    36    18    83 1   
    37    18    84 1   
    38    19    22 1   
    39    19    63 1   
    40    20    21 ar  
    41    22    85 1   
    42    22    86 1   
    43    22    87 1   
    44    23    68 1   
    45    23    88 1   
    46    23    89 1   
    47    23    90 1   
    48    24    54 2   
    49    25    56 2   
    50    26    57 2   
    51    27    31 ar  
    52    27    61 ar  
    53    27    95 1   
    54    28    32 ar  
    55    28    61 ar  
    56    28    96 1   
    57    29    33 ar  
    58    29    62 ar  
    59    29    97 1   
    60    30    34 ar  
    61    30    62 ar  
    62    30    98 1   
    63    31    63 ar  
    64    31    99 1   
    65    32    63 ar  
    66    32   100 1   
    67    33    64 ar  
    68    33   101 1   
    69    34    64 ar  
    70    34   102 1   
    71    35    48 ar  
    72    35    60 ar  
    73    35   135 1   
    74    36    37 1   
    75    36    38 1   
    76    36   103 1   
    77    36   104 1   
    78    37    39 1   
    79    37   105 1   
    80    37   106 1   
    81    38    40 1   
    82    38   107 1   
    83    38   108 1   
    84    39    41 1   
    85    39   109 1   
    86    39   110 1   
    87    40    42 1   
    88    40   111 1   
    89    40   112 1   
    90    41    43 1   
    91    41   113 1   
    92    41   114 1   
    93    42    44 1   
    94    42   115 1   
    95    42   116 1   
    96    43    70 1   
    97    43   117 1   
    98    43   118 1   
    99    44    52 1   
   100    44   119 1   
   101    44   129 1   
   102    45    46 1   
   103    45    54 1   
   104    45   120 1   
   105    45   121 1   
   106    46    67 1   
   107    46   122 1   
   108    46   123 1   
   109    47    60 1   
   110    47    68 1   
   111    47   124 1   
   112    47   125 1   
   113    48    65 ar  
   114    49    58 ar  
   115    49    59 ar  
   116    50    58 ar  
   117    50    65 ar  
   118    51    60 ar  
   119    51    66 ar  
   120    52    54 1   
   121    52   130 1   
   122    53    57 1   
   123    53    67 1   
   124    53   126 1   
   125    55    67 1   
   126    55   131 1   
   127    55   134 1   
   128    56    61 1   
   129    57    62 1   
   130    58   132 1   
   131    59    66 ar  
   132    59   133 1   
   133    64    68 1   
   134    65    66 ar  
   135    67   127 1   
   136    70   128 1   
   137    91   132 1   
   138    92   132 1   
   139    93   133 1   
   140    94   133 1   
@<TRIPOS>SUBSTRUCTURE
     1 2MX         1 TEMP              0 ****  ****    0 ROOT
