@<TRIPOS>MOLECULE
2MX
  135   140     1     0     0
SMALL
No Charge or Current Charge


@<TRIPOS>ATOM
      1 C          -11.5690    -4.9500    -1.1180 c          1 2MX       0.718000
      2 N          -11.8230    -2.4670    -1.0150 ns         1 2MX      -0.454900
      3 OXT        -11.4660    -5.7320    -2.0530 o          1 2MX      -0.722000
      4 N1         -21.5220     1.8740     2.9380 nb         1 2MX      -0.286500
      5 C2         -22.3940     2.8830     2.8210 ca         1 2MX       0.450900
      6 N2         -23.6510     2.6370     3.2450 nv         1 2MX      -1.070400
      7 N3         -22.1800     4.1020     2.3300 nb         1 2MX      -0.354000
      8 C4         -20.9330     4.3330     1.9140 ca         1 2MX       0.468400
      9 N4         -20.7400     5.5910     1.4150 nv         1 2MX      -1.045400
     10 N5         -18.6300     3.6120     1.5190 nb         1 2MX      -0.586500
     11 C6         -17.7240     2.6030     1.6030 ca         1 2MX       0.210800
     12 C7         -18.0810     1.3530     2.1470 ca         1 2MX       0.085900
     13 N8         -19.3260     1.0970     2.5950 nb         1 2MX      -0.118500
     14 C9         -16.2940     2.8710     1.1080 c3         1 2MX       0.189500
     15 CA         -10.8510    -3.5680    -1.2320 c3         1 2MX      -0.047800
     16 CB          -9.6430    -3.4790    -0.2610 c3         1 2MX      -0.065900
     17 CD          -7.5450    -2.2470     0.4870 c          1 2MX       0.597100
     18 CG          -8.7580    -2.2220    -0.4510 c3         1 2MX      -0.154900
     19 N10        -16.0060     2.5050    -0.3120 nh         1 2MX      -0.806900
     20 C4A        -19.8950     3.3570     1.9690 ca         1 2MX       0.033000
     21 C8A        -20.2550     2.0800     2.5150 ca         1 2MX       0.114000
     22 CAA        -16.6490     3.3340    -1.3580 c3         1 2MX       0.217100
     23 CAB         18.1070    -1.9220    -1.5190 c3         1 2MX       0.217100
     24 OAH          7.6980    -0.4500     1.0530 o          1 2MX      -0.620100
     25 OAK        -11.0850    -1.0460    -2.6320 o          1 2MX      -0.615600
     26 OAL         11.2450    -0.7100    -3.3710 o          1 2MX      -0.615600
     27 CAO        -13.8450    -0.5500    -0.2520 ca         1 2MX      -0.037750
     28 CAP        -13.0980     0.9060    -2.0430 ca         1 2MX      -0.037750
     29 CAQ         13.9000    -1.4390    -2.5760 ca         1 2MX      -0.037750
     30 CAR         13.8080     0.3870    -0.9760 ca         1 2MX      -0.037750
     31 CAS        -14.8430     0.3830     0.0790 ca         1 2MX      -0.199750
     32 CAT        -14.1000     1.8320    -1.7060 ca         1 2MX      -0.199750
     33 CAU         15.1810    -1.7800    -2.1090 ca         1 2MX      -0.199750
     34 CAV         15.0860     0.0340    -0.5100 ca         1 2MX      -0.199750
     35 CAX         17.4690     0.6780     2.3090 ca         1 2MX       0.085900
     36 CAY          0.0260    -1.9500     0.2490 c3         1 2MX      -0.075400
     37 CAZ         -1.3130    -1.9410    -0.5210 c3         1 2MX      -0.074900
     38 CBA          1.2470    -1.5880    -0.6250 c3         1 2MX      -0.074900
     39 CBB         -2.5160    -2.2890     0.3830 c3         1 2MX      -0.072900
     40 CBC          2.5700    -1.6000     0.1740 c3         1 2MX      -0.072900
     41 CBD         -3.8720    -2.2620    -0.3560 c3         1 2MX      -0.094900
     42 CBE          3.8080    -1.2400    -0.6750 c3         1 2MX      -0.094900
     43 CBF         -5.0560    -2.5840     0.5780 c3         1 2MX       0.104000
     44 CBG          5.1110    -1.2630     0.1490 c3         1 2MX       0.104000
     45 CBI          8.5800    -0.2390    -1.1940 c3         1 2MX      -0.154900
     46 CBK          8.8280     1.2840    -1.3390 c3         1 2MX      -0.065900
     47 CBM         17.3820    -1.4340     0.8620 c3         1 2MX       0.189500
     48 NBO         18.0990     1.7360     2.8580 nb         1 2MX      -0.118500
     49 NBQ         22.1100     2.3250     1.9670 nb         1 2MX      -0.354000
     50 NBS         20.0880     2.9730     3.0880 nb         1 2MX      -0.286500
     51 NBU         19.4430    -0.0640     1.1490 nb         1 2MX      -0.586500
     52 NBW          6.2800    -0.9270    -0.6650 ns         1 2MX      -0.515400
     53 NBY         11.2370     1.1470    -2.0530 ns         1 2MX      -0.454900
     54 CCA          7.4950    -0.5310    -0.1510 c          1 2MX       0.597100
     55 CCC          9.9450     3.2030    -2.6330 c          1 2MX       0.718000
     56 CCD        -11.8730    -1.2830    -1.7240 c          1 2MX       0.610700
     57 CCE         11.8170    -0.0050    -2.5490 c          1 2MX       0.610700
     58 CCG         21.3780     3.1070     2.7580 ca         1 2MX       0.450900
     59 CCI         21.4620     1.2800     1.4470 ca         1 2MX       0.468400
     60 CCK         18.1270    -0.2230     1.4490 ca         1 2MX       0.210800
     61 CCL        -12.9570    -0.3010    -1.3250 ca         1 2MX      -0.165600
     62 CCM         13.1950    -0.3480    -2.0190 ca         1 2MX      -0.165600
     63 CCN        -14.9860     1.5800    -0.6430 ca         1 2MX       0.328500
     64 CCO         15.7860    -1.0490    -1.0700 ca         1 2MX       0.328500
     65 CCQ         19.4080     1.9260     2.5680 ca         1 2MX       0.114000
     66 CCS         20.0860     1.0070     1.7010 ca         1 2MX       0.033000
     67 CCU          9.8900     1.6610    -2.4070 c3         1 2MX      -0.047800
     68 NCW         17.0750    -1.3950    -0.5990 nh         1 2MX      -0.806900
     69 OE1         -7.6370    -2.0230     1.6860 o          1 2MX      -0.620100
     70 NE2         -6.3390    -2.5130    -0.1210 ns         1 2MX      -0.515400
     71 O          -12.2760    -5.1610    -0.1390 o          1 2MX      -0.722000
     72 HN         -12.5290    -2.6010    -0.3010 hn         1 2MX       0.295500
     73 HN2        -23.9200     1.6660     3.3950 hn         1 2MX       0.502500
     74 HN2A       -24.3880     3.2730     2.9480 hn         1 2MX       0.502500
     75 HN4        -21.5590     6.1080     1.1040 hn         1 2MX       0.518000
     76 HN4A       -19.8800     5.7450     0.8950 hn         1 2MX       0.518000
     77 H7         -17.3610     0.5390     2.2300 h4         1 2MX       0.021100
     78 H9         -16.0750     3.9390     1.2500 h1         1 2MX       0.057700
     79 H9A        -15.6020     2.3420     1.7760 h1         1 2MX       0.057700
     80 HA         -10.4710    -3.5000    -2.2600 h1         1 2MX       0.060200
     81 HB         -10.0070    -3.5170     0.7740 hc         1 2MX       0.062700
     82 HBA         -9.0180    -4.3700    -0.4040 hc         1 2MX       0.062700
     83 HG          -8.4240    -2.1860    -1.4960 hc         1 2MX       0.049700
     84 HGA         -9.3550    -1.3310    -0.2210 hc         1 2MX       0.049700
     85 HAA        -16.1180     4.2880    -1.4740 h1         1 2MX       0.030367
     86 HAAA       -16.6470     2.8080    -2.3230 h1         1 2MX       0.030367
     87 HAAB       -17.6960     3.5440    -1.1010 h1         1 2MX       0.030367
     88 HAB         18.0040    -3.0110    -1.6290 h1         1 2MX       0.030367
     89 HABA        18.0140    -1.4550    -2.5100 h1         1 2MX       0.030367
     90 HABB        19.1160    -1.7040    -1.1400 h1         1 2MX       0.030367
     91 HNAD        23.0410     4.1560     3.2680 hn         1 2MX       0.502500
     92 HNAA        21.5930     4.6370     4.0860 hn         1 2MX       0.502500
     93 HNAF        23.0730     0.9090     0.2400 hn         1 2MX       0.518000
     94 HNAB        21.7390    -0.1770     0.0560 hn         1 2MX       0.518000
     95 HAO        -13.7820    -1.4630     0.3350 ha         1 2MX       0.123250
     96 HAP        -12.4300     1.1320    -2.8730 ha         1 2MX       0.123250
     97 HAQ         13.4570    -2.0280    -3.3790 ha         1 2MX       0.123250
     98 HAR         13.3070     1.2330    -0.5080 ha         1 2MX       0.123250
     99 HAS        -15.5200     0.1570     0.8970 ha         1 2MX       0.102250
    100 HAT        -14.1770     2.7520    -2.2760 ha         1 2MX       0.102250
    101 HAU         15.6940    -2.6270    -2.5550 ha         1 2MX       0.102250
    102 HAV         15.5370     0.6220     0.2820 ha         1 2MX       0.102250
    103 HAY         -0.0370    -1.2410     1.0850 hc         1 2MX       0.037200
    104 HAYA         0.1810    -2.9450     0.6870 hc         1 2MX       0.037200
    105 HAZ         -1.4680    -0.9490    -0.9650 hc         1 2MX       0.037700
    106 HAZA        -1.2600    -2.6600    -1.3490 hc         1 2MX       0.037700
    107 HBAA         1.3200    -2.2980    -1.4580 hc         1 2MX       0.037700
    108 HBAB         1.0970    -0.5920    -1.0610 hc         1 2MX       0.037700
    109 HBB         -2.3640    -3.2860     0.8170 hc         1 2MX       0.039450
    110 HBBA        -2.5510    -1.5790     1.2200 hc         1 2MX       0.039450
    111 HBC          2.4910    -0.8920     1.0090 hc         1 2MX       0.039450
    112 HBCA         2.7140    -2.5950     0.6130 hc         1 2MX       0.039450
    113 HBD         -4.0230    -1.2690    -0.7990 hc         1 2MX       0.042450
    114 HBDA        -3.8530    -2.9870    -1.1810 hc         1 2MX       0.042450
    115 HBE          3.8940    -1.9480    -1.5100 hc         1 2MX       0.042450
    116 HBEA         3.6730    -0.2400    -1.1090 hc         1 2MX       0.042450
    117 HBF         -4.9370    -3.5940     0.9920 h1         1 2MX       0.046450
    118 HBFA        -5.0590    -1.8690     1.4120 h1         1 2MX       0.046450
    119 HBG          5.0300    -0.5420     0.9740 h1         1 2MX       0.046450
    120 HBI          8.2800    -0.6340    -2.1710 hc         1 2MX       0.049700
    121 HBIA         9.5100    -0.7180    -0.8670 hc         1 2MX       0.049700
    122 HBK          7.8800     1.7690    -1.6060 hc         1 2MX       0.062700
    123 HBKA         9.1280     1.6990    -0.3690 hc         1 2MX       0.062700
    124 HBM         17.9770    -2.3330     1.0810 h1         1 2MX       0.057700
    125 HBMA        16.4460    -1.5650     1.4230 h1         1 2MX       0.057700
    126 HNBY        11.7910     1.6940    -1.4070 hn         1 2MX       0.295500
    127 HCU          9.5860     1.2160    -3.3630 h1         1 2MX       0.060200
    128 HNE2        -6.3580    -2.6780    -1.1210 hn         1 2MX       0.309500
    129 H61          5.2590    -2.2640     0.5790 h1         1 2MX       0.046450
    130 H62          6.2030    -0.9790    -1.6740 hn         1 2MX       0.309500
    131 OAN         10.4520     3.9030    -1.7650 o          1 2MX      -0.722000
    132 NAD         22.0250     4.1620     3.2960 nv         1 2MX      -1.070400
    133 NAF         22.2340     0.4960     0.6380 nv         1 2MX      -1.045400
    134 OAJ          9.5560     3.6420    -3.7070 o          1 2MX      -0.722000
    135 HAX         16.4190     0.5510     2.5680 h4         1 2MX       0.021100
@<TRIPOS>BOND
     1     1     3 1   
     2     1    15 1   
     3     1    71 1   
     4     2    15 1   
     5     2    56 1   
     6     2    72 1   
     7     4     5 ar  
     8     4    21 ar  
     9     5     6 1   
    10     5     7 ar  
    11     6    73 1   
    12     6    74 1   
    13     7     8 ar  
    14     8     9 1   
    15     8    20 ar  
    16     9    75 1   
    17     9    76 1   
    18    10    11 ar  
    19    10    20 ar  
    20    11    12 ar  
    21    11    14 1   
    22    12    13 ar  
    23    12    77 1   
    24    13    21 ar  
    25    14    19 1   
    26    14    78 1   
    27    14    79 1   
    28    15    16 1   
    29    15    80 1   
    30    16    18 1   
    31    16    81 1   
    32    16    82 1   
    33    17    18 1   
    34    17    69 2   
    35    17    70 1   
    36    18    83 1   
    37    18    84 1   
    38    19    22 1   
    39    19    63 1   
    40    20    21 ar  
    41    22    85 1   
    42    22    86 1   
    43    22    87 1   
    44    23    68 1   
    45    23    88 1   
    46    23    89 1   
    47    23    90 1   
    48    24    54 2   
    49    25    56 2   
    50    26    57 2   
    51    27    31 ar  
    52    27    61 ar  
    53    27    95 1   
    54    28    32 ar  
    55    28    61 ar  
    56    28    96 1   
    57    29    33 ar  
    58    29    62 ar  
    59    29    97 1   
    60    30    34 ar  
    61    30    62 ar  
    62    30    98 1   
    63    31    63 ar  
    64    31    99 1   
    65    32    63 ar  
    66    32   100 1   
    67    33    64 ar  
    68    33   101 1   
    69    34    64 ar  
    70    34   102 1   
    71    35    48 ar  
    72    35    60 ar  
    73    35   135 1   
    74    36    37 1   
    75    36    38 1   
    76    36   103 1   
    77    36   104 1   
    78    37    39 1   
    79    37   105 1   
    80    37   106 1   
    81    38    40 1   
    82    38   107 1   
    83    38   108 1   
    84    39    41 1   
    85    39   109 1   
    86    39   110 1   
    87    40    42 1   
    88    40   111 1   
    89    40   112 1   
    90    41    43 1   
    91    41   113 1   
    92    41   114 1   
    93    42    44 1   
    94    42   115 1   
    95    42   116 1   
    96    43    70 1   
    97    43   117 1   
    98    43   118 1   
    99    44    52 1   
   100    44   119 1   
   101    44   129 1   
   102    45    46 1   
   103    45    54 1   
   104    45   120 1   
   105    45   121 1   
   106    46    67 1   
   107    46   122 1   
   108    46   123 1   
   109    47    60 1   
   110    47    68 1   
   111    47   124 1   
   112    47   125 1   
   113    48    65 ar  
   114    49    58 ar  
   115    49    59 ar  
   116    50    58 ar  
   117    50    65 ar  
   118    51    60 ar  
   119    51    66 ar  
   120    52    54 1   
   121    52   130 1   
   122    53    57 1   
   123    53    67 1   
   124    53   126 1   
   125    55    67 1   
   126    55   131 1   
   127    55   134 1   
   128    56    61 1   
   129    57    62 1   
   130    58   132 1   
   131    59    66 ar  
   132    59   133 1   
   133    64    68 1   
   134    65    66 ar  
   135    67   127 1   
   136    70   128 1   
   137    91   132 1   
   138    92   132 1   
   139    93   133 1   
   140    94   133 1   
@<TRIPOS>SUBSTRUCTURE
     1 2MX         1 TEMP              0 ****  ****    0 ROOT
