@<TRIPOS>MOLECULE
2MY
   19    19     1     0     0
SMALL
No Charge or Current Charge


@<TRIPOS>ATOM
      1 C8           2.4850    -0.7460     0.0650 c3         1 2MY      -0.041300
      2 C6           1.1600     0.0150     0.0420 ca         1 2MY      -0.136300
      3 C5           1.1760     1.4220    -0.0290 ca         1 2MY      -0.076000
      4 C4          -0.0270     2.1450    -0.0520 ca         1 2MY      -0.143000
      5 C3          -1.2570     1.4710    -0.0040 ca         1 2MY      -0.076000
      6 C2          -1.2930     0.0650     0.0670 ca         1 2MY      -0.136300
      7 C7          -2.6410    -0.6510     0.1190 c3         1 2MY      -0.041300
      8 C1          -0.0810    -0.6610     0.0900 ca         1 2MY       0.139100
      9 O1          -0.1140    -2.0270     0.1590 oh         1 2MY      -0.540100
     10 H8           2.5870    -1.3370     0.9830 hc         1 2MY       0.041700
     11 H8A          2.5670    -1.4260    -0.7910 hc         1 2MY       0.041700
     12 H8B          3.3440    -0.0660     0.0210 hc         1 2MY       0.041700
     13 H5           2.1210     1.9600    -0.0670 ha         1 2MY       0.111000
     14 H4          -0.0060     3.2310    -0.1060 ha         1 2MY       0.115000
     15 H3          -2.1810     2.0450    -0.0220 ha         1 2MY       0.111000
     16 H7          -2.7570    -1.3320    -0.7330 hc         1 2MY       0.041700
     17 H7A         -2.7370    -1.2430     1.0370 hc         1 2MY       0.041700
     18 H7B         -3.4800     0.0530     0.0930 hc         1 2MY       0.041700
     19 HO1          0.8090    -2.3540     0.1650 ho         1 2MY       0.464000
@<TRIPOS>BOND
     1     1     2 1   
     2     1    10 1   
     3     1    11 1   
     4     1    12 1   
     5     2     3 ar  
     6     2     8 ar  
     7     3     4 ar  
     8     3    13 1   
     9     4     5 ar  
    10     4    14 1   
    11     5     6 ar  
    12     5    15 1   
    13     6     7 1   
    14     6     8 ar  
    15     7    16 1   
    16     7    17 1   
    17     7    18 1   
    18     8     9 1   
    19     9    19 1   
@<TRIPOS>SUBSTRUCTURE
     1 2MY         1 TEMP              0 ****  ****    0 ROOT
