@<TRIPOS>MOLECULE
2MY
   19    19     1     0     0
SMALL
abcg2


@<TRIPOS>ATOM
      1 C8           2.4490    -0.7390     0.0630 c3         1 2MY      -0.041300
      2 C6           1.1620     0.0350     0.0390 ca         1 2MY      -0.136300
      3 C5           1.1610     1.4250    -0.0290 ca         1 2MY      -0.076000
      4 C4          -0.0250     2.1430    -0.0500 ca         1 2MY      -0.143000
      5 C3          -1.2340     1.4630    -0.0040 ca         1 2MY      -0.076000
      6 C2          -1.2800     0.0750     0.0650 ca         1 2MY      -0.136300
      7 C7          -2.5860    -0.6610     0.1170 c3         1 2MY      -0.041300
      8 C1          -0.0700    -0.6260     0.0860 ca         1 2MY       0.139100
      9 O1          -0.1550    -1.9750     0.1540 oh         1 2MY      -0.540100
     10 H8           2.5590    -1.3310     0.9750 hc         1 2MY       0.041700
     11 H8A          2.5370    -1.4250    -0.7850 hc         1 2MY       0.041700
     12 H8B          3.3040    -0.0660     0.0170 hc         1 2MY       0.041700
     13 H5           2.1090     1.9480    -0.0650 ha         1 2MY       0.111000
     14 H4          -0.0080     3.2240    -0.1010 ha         1 2MY       0.115000
     15 H3          -2.1640     2.0170    -0.0210 ha         1 2MY       0.111000
     16 H7          -2.7030    -1.3430    -0.7270 hc         1 2MY       0.041700
     17 H7A         -2.6780    -1.2610     1.0240 hc         1 2MY       0.041700
     18 H7B         -3.4220     0.0370     0.0950 hc         1 2MY       0.041700
     19 HO1          0.7200    -2.3750     0.1860 ho         1 2MY       0.464000
@<TRIPOS>BOND
     1     1     2 1   
     2     1    10 1   
     3     1    11 1   
     4     1    12 1   
     5     2     3 ar  
     6     2     8 ar  
     7     3     4 ar  
     8     3    13 1   
     9     4     5 ar  
    10     4    14 1   
    11     5     6 ar  
    12     5    15 1   
    13     6     7 1   
    14     6     8 ar  
    15     7    16 1   
    16     7    17 1   
    17     7    18 1   
    18     8     9 1   
    19     9    19 1   
@<TRIPOS>SUBSTRUCTURE
     1 2MY         1 TEMP              0 ****  ****    0 ROOT
