@<TRIPOS>MOLECULE
2MZ
   12    12     1     0     0
SMALL
No Charge or Current Charge


@<TRIPOS>ATOM
      1 N1           1.0280     0.1050    -0.1270 na         1 2MZ      -0.302500
      2 C2          -0.0790    -0.0170     0.6740 cc         1 2MZ       0.400800
      3 N3          -1.1720    -0.1460    -0.0590 nd         1 2MZ      -0.676000
      4 C4          -0.7550    -0.1050    -1.3750 cd         1 2MZ       0.233900
      5 C5           0.6060     0.0500    -1.4410 cc         1 2MZ      -0.234000
      6 C6          -0.0380    -0.0050     2.1740 c3         1 2MZ      -0.122400
      7 HN1          1.9790     0.2150     0.2070 hn         1 2MZ       0.347000
      8 H4          -1.4550    -0.1890    -2.1980 h4         1 2MZ       0.037100
      9 H5           1.2720     0.1220    -2.2930 h4         1 2MZ       0.156000
     10 H61          0.3820     0.9380     2.5410 hc         1 2MZ       0.053367
     11 H62         -1.0420    -0.1170     2.5990 hc         1 2MZ       0.053367
     12 H63          0.5830    -0.8260     2.5500 hc         1 2MZ       0.053367
@<TRIPOS>BOND
     1     1     2 1   
     2     1     5 1   
     3     1     7 1   
     4     2     3 2   
     5     2     6 1   
     6     3     4 1   
     7     4     5 2   
     8     4     8 1   
     9     5     9 1   
    10     6    10 1   
    11     6    11 1   
    12     6    12 1   
@<TRIPOS>SUBSTRUCTURE
     1 2MZ         1 TEMP              0 ****  ****    0 ROOT
