@<TRIPOS>MOLECULE
2MZ
   12    12     1     0     0
SMALL
abcg2


@<TRIPOS>ATOM
      1 N1           1.0060     0.0850    -0.1180 na         1 2MZ      -0.302500
      2 C2          -0.0890    -0.0170     0.6680 cc         1 2MZ       0.400800
      3 N3          -1.1740    -0.1250    -0.0610 nd         1 2MZ      -0.676000
      4 C4          -0.7570    -0.0890    -1.3640 cd         1 2MZ       0.233900
      5 C5           0.5990     0.0420    -1.4210 cc         1 2MZ      -0.234000
      6 C6          -0.0260    -0.0000     2.1530 c3         1 2MZ      -0.122400
      7 HN1          1.9580     0.1760     0.1980 hn         1 2MZ       0.347000
      8 H4          -1.4510    -0.1610    -2.1870 h4         1 2MZ       0.037100
      9 H5           1.2890     0.1050    -2.2450 h4         1 2MZ       0.156000
     10 H61          0.3320     0.9590     2.5300 hc         1 2MZ       0.053367
     11 H62         -1.0180    -0.1750     2.5640 hc         1 2MZ       0.053367
     12 H63          0.6420    -0.7730     2.5360 hc         1 2MZ       0.053367
@<TRIPOS>BOND
     1     1     2 1   
     2     1     5 1   
     3     1     7 1   
     4     2     3 2   
     5     2     6 1   
     6     3     4 1   
     7     4     5 2   
     8     4     8 1   
     9     5     9 1   
    10     6    10 1   
    11     6    11 1   
    12     6    12 1   
@<TRIPOS>SUBSTRUCTURE
     1 2MZ         1 TEMP              0 ****  ****    0 ROOT
