@<TRIPOS>MOLECULE
2N0
   38    40     1     0     0
SMALL
No Charge or Current Charge


@<TRIPOS>ATOM
      1 O           -4.1500     0.1950    -1.5160 o          1 2N0      -0.543100
      2 C16         -3.1990    -0.3460    -0.9650 c          1 2N0       0.614700
      3 C4          -2.0020     0.3850    -0.4910 cc         1 2N0      -0.258600
      4 C3          -1.7130     1.7520    -0.6600 cc         1 2N0      -0.100000
      5 C15         -3.1760    -1.8620    -0.6860 c6         1 2N0      -0.179400
      6 C14         -2.4100    -2.2350     0.6150 c6         1 2N0      -0.063400
      7 C13         -0.9690    -1.6580     0.6180 c6         1 2N0      -0.015100
      8 C5          -0.9900    -0.1990     0.2150 cd         1 2N0      -0.100300
      9 N           -0.0500     0.8080     0.4790 na         1 2N0       0.037000
     10 C2          -0.5080     2.0250    -0.0690 cd         1 2N0      -0.184300
     11 C1           0.2230     3.3450    -0.0090 c3         1 2N0      -0.009100
     12 C            0.0370     4.0600     1.3420 c3         1 2N0      -0.089100
     13 C6           1.2170     0.5960     1.2060 c3         1 2N0       0.109900
     14 C7           2.1980    -0.3240     0.4820 ca         1 2N0      -0.116300
     15 C12          2.4340    -0.1780    -0.9010 ca         1 2N0      -0.097500
     16 C11          3.3350    -1.0320    -1.5610 ca         1 2N0      -0.109500
     17 C10          4.0080    -2.0350    -0.8440 ca         1 2N0      -0.102000
     18 C9           3.7820    -2.1820     0.5340 ca         1 2N0      -0.109500
     19 C8           2.8810    -1.3290     1.1950 ca         1 2N0      -0.097500
     20 H1          -2.3500     2.4610    -1.1830 ha         1 2N0       0.145000
     21 H2          -4.1950    -2.2680    -0.7210 hc         1 2N0       0.066200
     22 H3          -2.6150    -2.3090    -1.5170 hc         1 2N0       0.066200
     23 H4          -2.9610    -1.8440     1.4820 hc         1 2N0       0.047200
     24 H5          -2.3760    -3.3270     0.7350 hc         1 2N0       0.047200
     25 H6          -0.5220    -1.7860     1.6130 hc         1 2N0       0.055700
     26 H7          -0.3400    -2.2270    -0.0800 hc         1 2N0       0.055700
     27 H8           1.2930     3.2010    -0.2000 hc         1 2N0       0.050700
     28 H9          -0.1400     4.0050    -0.8070 hc         1 2N0       0.050700
     29 H10          0.5730     5.0170     1.3460 hc         1 2N0       0.036033
     30 H11         -1.0250     4.2610     1.5280 hc         1 2N0       0.036033
     31 H12          0.4210     3.4480     2.1670 hc         1 2N0       0.036033
     32 H13          1.7050     1.5610     1.3840 h1         1 2N0       0.068200
     33 H14          0.9730     0.1740     2.1890 h1         1 2N0       0.068200
     34 H15          1.9190     0.5950    -1.4680 ha         1 2N0       0.118000
     35 H16          3.5100    -0.9160    -2.6290 ha         1 2N0       0.116000
     36 H17          4.7050    -2.6950    -1.3560 ha         1 2N0       0.115000
     37 H18          4.3040    -2.9570     1.0910 ha         1 2N0       0.116000
     38 H19          2.7130    -1.4530     2.2630 ha         1 2N0       0.118000
@<TRIPOS>BOND
     1     1     2 2   
     2     2     3 1   
     3     2     5 1   
     4     3     4 1   
     5     3     8 2   
     6     4    10 2   
     7     4    20 1   
     8     5     6 1   
     9     5    21 1   
    10     5    22 1   
    11     6     7 1   
    12     6    23 1   
    13     6    24 1   
    14     7     8 1   
    15     7    25 1   
    16     7    26 1   
    17     8     9 1   
    18     9    10 1   
    19     9    13 1   
    20    10    11 1   
    21    11    12 1   
    22    11    27 1   
    23    11    28 1   
    24    12    29 1   
    25    12    30 1   
    26    12    31 1   
    27    13    14 1   
    28    13    32 1   
    29    13    33 1   
    30    14    15 ar  
    31    14    19 ar  
    32    15    16 ar  
    33    15    34 1   
    34    16    17 ar  
    35    16    35 1   
    36    17    18 ar  
    37    17    36 1   
    38    18    19 ar  
    39    18    37 1   
    40    19    38 1   
@<TRIPOS>SUBSTRUCTURE
     1 2N0         1 TEMP              0 ****  ****    0 ROOT
