@<TRIPOS>MOLECULE
2N0
   38    40     1     0     0
SMALL
bcc


@<TRIPOS>ATOM
      1 O           -3.9990     0.0990    -1.7560 o          1 2N0      -0.543100
      2 C16         -3.1280    -0.3820    -1.0480 c          1 2N0       0.614700
      3 C4          -2.0050     0.3780    -0.5470 cc         1 2N0      -0.258600
      4 C3          -1.6290     1.7340    -0.7720 cc         1 2N0      -0.118000
      5 C15         -3.1200    -1.8530    -0.6760 c6         1 2N0      -0.179400
      6 C14         -2.4490    -2.1400     0.6650 c6         1 2N0      -0.063400
      7 C13         -1.0220    -1.5980     0.7280 c6         1 2N0      -0.015100
      8 C5          -1.0340    -0.1900     0.2550 cd         1 2N0      -0.049600
      9 N           -0.1060     0.7560     0.5190 na         1 2N0      -0.035100
     10 C2          -0.4540     1.9440    -0.1100 cd         1 2N0      -0.133600
     11 C1           0.3420     3.1970     0.0270 c3         1 2N0      -0.009100
     12 C            0.1080     3.9280     1.3500 c3         1 2N0      -0.089100
     13 C6           1.1160     0.5050     1.2520 c3         1 2N0       0.080600
     14 C7           2.1050    -0.3330     0.4790 ca         1 2N0      -0.116300
     15 C12          2.2610    -0.1840    -0.8960 ca         1 2N0      -0.115500
     16 C11          3.2020    -0.9400    -1.5820 ca         1 2N0      -0.127500
     17 C10          3.9980    -1.8530    -0.9020 ca         1 2N0      -0.120000
     18 C9           3.8440    -2.0090     0.4690 ca         1 2N0      -0.127500
     19 C8           2.9000    -1.2540     1.1530 ca         1 2N0      -0.115500
     20 H1          -2.1590     2.4700    -1.3560 ha         1 2N0       0.163000
     21 H2          -4.1430    -2.2300    -0.6870 hc         1 2N0       0.066200
     22 H3          -2.5830    -2.3800    -1.4750 hc         1 2N0       0.066200
     23 H4          -3.0370    -1.6870     1.4680 hc         1 2N0       0.047200
     24 H5          -2.4440    -3.2160     0.8480 hc         1 2N0       0.047200
     25 H6          -0.6350    -1.6750     1.7470 hc         1 2N0       0.055700
     26 H7          -0.3590    -2.2010     0.0980 hc         1 2N0       0.055700
     27 H8           1.4100     2.9980    -0.1010 hc         1 2N0       0.050700
     28 H9           0.0640     3.8550    -0.7970 hc         1 2N0       0.050700
     29 H10          0.6880     4.8510     1.3850 hc         1 2N0       0.036033
     30 H11         -0.9440     4.1840     1.4690 hc         1 2N0       0.036033
     31 H12          0.4010     3.3230     2.2090 hc         1 2N0       0.036033
     32 H13          1.5640     1.4630     1.5140 h1         1 2N0       0.068200
     33 H14          0.8740     0.0190     2.1980 h1         1 2N0       0.068200
     34 H15          1.6440     0.5170    -1.4450 ha         1 2N0       0.136000
     35 H16          3.3130    -0.8160    -2.6520 ha         1 2N0       0.134000
     36 H17          4.7290    -2.4420    -1.4390 ha         1 2N0       0.133000
     37 H18          4.4520    -2.7240     1.0080 ha         1 2N0       0.134000
     38 H19          2.7770    -1.3870     2.2210 ha         1 2N0       0.136000
@<TRIPOS>BOND
     1     1     2 2   
     2     2     3 1   
     3     2     5 1   
     4     3     4 1   
     5     3     8 2   
     6     4    10 2   
     7     4    20 1   
     8     5     6 1   
     9     5    21 1   
    10     5    22 1   
    11     6     7 1   
    12     6    23 1   
    13     6    24 1   
    14     7     8 1   
    15     7    25 1   
    16     7    26 1   
    17     8     9 1   
    18     9    10 1   
    19     9    13 1   
    20    10    11 1   
    21    11    12 1   
    22    11    27 1   
    23    11    28 1   
    24    12    29 1   
    25    12    30 1   
    26    12    31 1   
    27    13    14 1   
    28    13    32 1   
    29    13    33 1   
    30    14    15 ar  
    31    14    19 ar  
    32    15    16 ar  
    33    15    34 1   
    34    16    17 ar  
    35    16    35 1   
    36    17    18 ar  
    37    17    36 1   
    38    18    19 ar  
    39    18    37 1   
    40    19    38 1   
@<TRIPOS>SUBSTRUCTURE
     1 2N0         1 TEMP              0 ****  ****    0 ROOT
