@<TRIPOS>MOLECULE
2N2
   61    64     1     0     0
SMALL
abcg2


@<TRIPOS>ATOM
      1 C11         29.7530   -18.4820    27.1430 ca         1 2N2      -0.027500
      2 C12         31.0940   -18.3870    27.4760 ca         1 2N2      -0.168500
      3 C13         31.5160   -17.3500    28.3110 ca         1 2N2       0.144600
      4 C14         30.5960   -16.4350    28.8060 ca         1 2N2      -0.234000
      5 C15         27.1930   -17.3350    25.7130 ca         1 2N2      -0.071300
      6 C16         27.6160   -16.0880    25.2470 ca         1 2N2      -0.092000
      7 C17         27.4730   -15.7230    23.9200 ca         1 2N2      -0.154000
      8 C18         26.9260   -16.6320    23.0140 ca         1 2N2      -0.009400
      9 C19         26.5530   -17.8970    23.4530 ca         1 2N2      -0.118000
     10 C20         26.6570   -18.2490    24.8010 ca         1 2N2      -0.089600
     11 C21         26.1950   -19.6430    25.2110 c          1 2N2       0.700600
     12 C01         24.2940   -15.9610    28.7070 ca         1 2N2      -0.168500
     13 C02         25.1010   -16.8310    27.9930 ca         1 2N2      -0.027500
     14 C03         26.4940   -16.7560    28.0420 ca         1 2N2      -0.148800
     15 C04         27.0540   -15.7750    28.8520 ca         1 2N2       0.157100
     16 C05         26.2700   -14.8840    29.5800 ca         1 2N2      -0.234000
     17 C06         24.8870   -14.9750    29.4990 ca         1 2N2       0.144600
     18 C07         27.3560   -17.6660    27.1940 c6         1 2N2       0.095200
     19 C08         28.8040   -17.5740    27.6160 ca         1 2N2      -0.148800
     20 C09         29.2540   -16.5600    28.4540 ca         1 2N2       0.157100
     21 O10         28.4130   -15.6130    28.9890 os         1 2N2      -0.251200
     22 O22         25.2390   -19.7070    26.0230 o          1 2N2      -0.707500
     23 O23         26.8050   -20.6070    24.6870 o          1 2N2      -0.707500
     24 N24         26.8130   -16.2570    21.6490 ns         1 2N2      -0.358100
     25 C25         25.7020   -16.2830    20.8670 cs         1 2N2       0.502400
     26 N26         24.5700   -16.7330    21.4120 ns         1 2N2      -0.440900
     27 C27         23.3070   -16.9150    20.7120 c3         1 2N2       0.112000
     28 C28         23.1850   -18.2850    20.0520 c3         1 2N2      -0.104400
     29 C29         21.8840   -18.4170    19.2650 c3         1 2N2      -0.069400
     30 C30         21.7190   -19.7870    18.6150 c3         1 2N2      -0.066400
     31 O31         32.8440   -17.2830    28.6160 oh         1 2N2      -0.544600
     32 O32         24.0610   -14.1270    30.1780 oh         1 2N2      -0.544600
     33 C33         20.4180   -19.8900    17.8060 c3         1 2N2      -0.201400
     34 S34         25.8140   -15.7180    19.2640 s          1 2N2      -0.761400
     35 C35         20.3100   -21.2050    17.1010 c          1 2N2       0.572900
     36 O36         19.3900   -21.9860    17.2210 o          1 2N2      -0.527100
     37 H1          29.4230   -19.2780    26.4860 ha         1 2N2       0.158000
     38 H2          31.8170   -19.0980    27.1000 ha         1 2N2       0.127500
     39 H3          30.9050   -15.6310    29.4620 ha         1 2N2       0.117500
     40 H5          28.0550   -15.3820    25.9420 ha         1 2N2       0.107000
     41 H6          27.7810   -14.7430    23.5780 ha         1 2N2       0.104000
     42 H7          26.1900   -18.6290    22.7430 ha         1 2N2       0.130000
     43 H8          23.2150   -16.0290    28.6570 ha         1 2N2       0.127500
     44 H9          24.6560   -17.5910    27.3630 ha         1 2N2       0.158000
     45 H10         26.7460   -14.1330    30.1990 ha         1 2N2       0.117500
     46 H12         27.5840   -15.7440    21.2500 hn         1 2N2       0.347500
     47 H13         24.5970   -17.0310    22.3770 hn         1 2N2       0.333500
     48 H14         23.2160   -16.1270    19.9660 h1         1 2N2       0.063200
     49 H15         22.5130   -16.7780    21.4480 h1         1 2N2       0.063200
     50 H16         23.2390   -19.0620    20.8200 hc         1 2N2       0.060700
     51 H17         24.0380   -18.4310    19.3840 hc         1 2N2       0.060700
     52 H18         21.8520   -17.6450    18.4890 hc         1 2N2       0.038700
     53 H19         21.0340   -18.2260    19.9280 hc         1 2N2       0.038700
     54 H20         21.7270   -20.5630    19.3870 hc         1 2N2       0.048200
     55 H21         22.5720   -19.9860    17.9590 hc         1 2N2       0.048200
     56 H22         24.5830   -13.4880    30.6820 ho         1 2N2       0.454500
     57 H23         20.4230   -19.1110    17.0330 hc         1 2N2       0.064700
     58 H24         19.5410   -19.7430    18.4380 hc         1 2N2       0.064700
     59 H25         21.1590   -21.4500    16.4330 h4         1 2N2      -0.018800
     60 H4          27.0160   -18.6900    27.3410 hc         1 2N2       0.118700
     61 H26         33.0140   -16.5300    29.1990 ho         1 2N2       0.454500
@<TRIPOS>BOND
     1     1     2 ar  
     2     1    19 ar  
     3     1    37 1   
     4     2     3 ar  
     5     2    38 1   
     6     3     4 ar  
     7     3    31 1   
     8     4    20 ar  
     9     4    39 1   
    10     5     6 ar  
    11     5    10 ar  
    12     5    18 1   
    13     6     7 ar  
    14     6    40 1   
    15     7     8 ar  
    16     7    41 1   
    17     8     9 ar  
    18     8    24 1   
    19     9    10 ar  
    20     9    42 1   
    21    10    11 1   
    22    11    22 1   
    23    11    23 1   
    24    12    13 ar  
    25    12    17 ar  
    26    12    43 1   
    27    13    14 ar  
    28    13    44 1   
    29    14    15 ar  
    30    14    18 1   
    31    15    16 ar  
    32    15    21 1   
    33    16    17 ar  
    34    16    45 1   
    35    17    32 1   
    36    18    19 1   
    37    18    60 1   
    38    19    20 ar  
    39    20    21 1   
    40    24    25 1   
    41    24    46 1   
    42    25    26 1   
    43    25    34 2   
    44    26    27 1   
    45    26    47 1   
    46    27    28 1   
    47    27    48 1   
    48    27    49 1   
    49    28    29 1   
    50    28    50 1   
    51    28    51 1   
    52    29    30 1   
    53    29    52 1   
    54    29    53 1   
    55    30    33 1   
    56    30    54 1   
    57    30    55 1   
    58    31    61 1   
    59    32    56 1   
    60    33    35 1   
    61    33    57 1   
    62    33    58 1   
    63    35    36 2   
    64    35    59 1   
@<TRIPOS>SUBSTRUCTURE
     1 2N2         1 TEMP              0 ****  ****    0 ROOT
