@<TRIPOS>MOLECULE
2N2
   61    64     1     0     0
SMALL
No Charge or Current Charge


@<TRIPOS>ATOM
      1 C11         29.4590   -18.5990    26.8700 ca         1 2N2      -0.027500
      2 C12         30.8410   -18.7150    27.0970 ca         1 2N2      -0.168500
      3 C13         31.4770   -17.8710    28.0170 ca         1 2N2       0.144600
      4 C14         30.7360   -16.9100    28.7170 ca         1 2N2      -0.234000
      5 C15         26.9540   -17.1200    25.8330 ca         1 2N2      -0.071300
      6 C16         27.4300   -15.8730    25.3790 ca         1 2N2      -0.092000
      7 C17         27.2520   -15.4770    24.0440 ca         1 2N2      -0.154000
      8 C18         26.5850   -16.3160    23.1400 ca         1 2N2      -0.009400
      9 C19         26.1280   -17.5740    23.5760 ca         1 2N2      -0.118000
     10 C20         26.2950   -17.9840    24.9170 ca         1 2N2      -0.089600
     11 C21         25.7770   -19.3420    25.3210 c          1 2N2       0.700600
     12 C01         24.5020   -15.4210    29.0590 ca         1 2N2      -0.168500
     13 C02         25.1300   -16.3500    28.2110 ca         1 2N2      -0.027500
     14 C03         26.5300   -16.5030    28.2440 ca         1 2N2      -0.148800
     15 C04         27.2910   -15.7190    29.1350 ca         1 2N2       0.157100
     16 C05         26.6600   -14.7910    29.9790 ca         1 2N2      -0.234000
     17 C06         25.2670   -14.6440    29.9400 ca         1 2N2       0.144600
     18 C07         27.2060   -17.5040    27.3050 c6         1 2N2       0.095200
     19 C08         28.7070   -17.6330    27.5700 ca         1 2N2      -0.148800
     20 C09         29.3540   -16.7910    28.4960 ca         1 2N2       0.157100
     21 O10         28.6570   -15.8420    29.2040 os         1 2N2      -0.251200
     22 O22         24.8020   -19.3930    26.0570 o          1 2N2      -0.707500
     23 O23         26.3350   -20.3280    24.8620 o          1 2N2      -0.707500
     24 N24         26.4390   -15.8870    21.7970 ns         1 2N2      -0.358100
     25 C25         25.4730   -16.0760    20.8520 cs         1 2N2       0.502400
     26 N26         24.3090   -16.5890    21.3430 ns         1 2N2      -0.440900
     27 C27         23.0990   -16.9080    20.5860 c3         1 2N2       0.112000
     28 C28         23.2080   -18.2690    19.8680 c3         1 2N2      -0.104400
     29 C29         21.9310   -18.6370    19.0810 c3         1 2N2      -0.069400
     30 C30         22.0370   -19.9990    18.3610 c3         1 2N2      -0.066400
     31 O31         32.8160   -17.9890    28.2310 oh         1 2N2      -0.544600
     32 O32         24.6530   -13.7460    30.7580 oh         1 2N2      -0.544600
     33 C33         20.7570   -20.3650    17.5720 c3         1 2N2      -0.201400
     34 S34         25.6870   -15.5720    19.2740 s          1 2N2      -0.761400
     35 C35         20.9030   -21.7090    16.8540 c          1 2N2       0.572900
     36 O36         20.7000   -22.7880    17.4010 o          1 2N2      -0.527100
     37 H1          28.9740   -19.2560    26.1490 ha         1 2N2       0.158000
     38 H2          31.4190   -19.4600    26.5550 ha         1 2N2       0.127500
     39 H3          31.2190   -16.2520    29.4340 ha         1 2N2       0.117500
     40 H5          27.9470   -15.2070    26.0660 ha         1 2N2       0.107000
     41 H6          27.6280   -14.5100    23.7180 ha         1 2N2       0.104000
     42 H7          25.6580   -18.2610    22.8760 ha         1 2N2       0.130000
     43 H8          23.4220   -15.3050    29.0310 ha         1 2N2       0.127500
     44 H9          24.5290   -16.9470    27.5270 ha         1 2N2       0.158000
     45 H10         27.2600   -14.1940    30.6600 ha         1 2N2       0.117500
     46 H12         27.2390   -15.3780    21.4410 hn         1 2N2       0.347500
     47 H13         24.2980   -16.7610    22.3410 hn         1 2N2       0.333500
     48 H14         22.9100   -16.1130    19.8520 h1         1 2N2       0.063200
     49 H15         22.2490   -16.9290    21.2820 h1         1 2N2       0.063200
     50 H16         23.4130   -19.0500    20.6110 hc         1 2N2       0.060700
     51 H17         24.0620   -18.2470    19.1810 hc         1 2N2       0.060700
     52 H18         21.7270   -17.8520    18.3410 hc         1 2N2       0.038700
     53 H19         21.0770   -18.6580    19.7690 hc         1 2N2       0.038700
     54 H20         22.2420   -20.7830    19.1020 hc         1 2N2       0.048200
     55 H21         22.8930   -19.9780    17.6730 hc         1 2N2       0.048200
     56 H22         25.3410   -13.3000    31.2960 ho         1 2N2       0.454500
     57 H23         20.5990   -19.5860    16.8170 hc         1 2N2       0.064700
     58 H24         19.9090   -20.4130    18.2650 hc         1 2N2       0.064700
     59 H25         21.2100   -21.6540    15.7860 h4         1 2N2      -0.018800
     60 H4          26.7670   -18.4850    27.5280 hc         1 2N2       0.118700
     61 H26         33.0790   -17.3230    28.9010 ho         1 2N2       0.454500
@<TRIPOS>BOND
     1     1     2 ar  
     2     1    19 ar  
     3     1    37 1   
     4     2     3 ar  
     5     2    38 1   
     6     3     4 ar  
     7     3    31 1   
     8     4    20 ar  
     9     4    39 1   
    10     5     6 ar  
    11     5    10 ar  
    12     5    18 1   
    13     6     7 ar  
    14     6    40 1   
    15     7     8 ar  
    16     7    41 1   
    17     8     9 ar  
    18     8    24 1   
    19     9    10 ar  
    20     9    42 1   
    21    10    11 1   
    22    11    22 1   
    23    11    23 1   
    24    12    13 ar  
    25    12    17 ar  
    26    12    43 1   
    27    13    14 ar  
    28    13    44 1   
    29    14    15 ar  
    30    14    18 1   
    31    15    16 ar  
    32    15    21 1   
    33    16    17 ar  
    34    16    45 1   
    35    17    32 1   
    36    18    19 1   
    37    18    60 1   
    38    19    20 ar  
    39    20    21 1   
    40    24    25 1   
    41    24    46 1   
    42    25    26 1   
    43    25    34 2   
    44    26    27 1   
    45    26    47 1   
    46    27    28 1   
    47    27    48 1   
    48    27    49 1   
    49    28    29 1   
    50    28    50 1   
    51    28    51 1   
    52    29    30 1   
    53    29    52 1   
    54    29    53 1   
    55    30    33 1   
    56    30    54 1   
    57    30    55 1   
    58    31    61 1   
    59    32    56 1   
    60    33    35 1   
    61    33    57 1   
    62    33    58 1   
    63    35    36 2   
    64    35    59 1   
@<TRIPOS>SUBSTRUCTURE
     1 2N2         1 TEMP              0 ****  ****    0 ROOT
