@<TRIPOS>MOLECULE
2N5
   50    52     1     0     0
SMALL
abcg2


@<TRIPOS>ATOM
      1 C1          -2.0950     0.8370    -0.2820 ca         1 2N5       0.121100
      2 C2          -2.2460    -0.5310    -0.6280 ca         1 2N5       0.208000
      3 C3          -1.1490    -1.3630    -0.7740 ca         1 2N5      -0.020000
      4 C4          -0.8340     1.3760    -0.0810 ca         1 2N5      -0.165000
      5 C5           0.2730     0.5350    -0.2130 ca         1 2N5      -0.048800
      6 C6           0.0910    -0.8010    -0.5490 ca         1 2N5       0.026100
      7 O7           1.2860    -1.4350    -0.6030 os         1 2N5      -0.155200
      8 C8           2.2410    -0.5320    -0.2800 cc         1 2N5       0.182900
      9 C9           1.6900     0.6920    -0.0340 cd         1 2N5      -0.231400
     10 C10          2.3760     1.9070     0.4710 c          1 2N5       0.636300
     11 N11          1.9920     3.0500    -0.1160 ns         1 2N5      -0.506900
     12 C12          3.6100    -1.0260    -0.2630 ca         1 2N5      -0.075800
     13 O13         -3.2490     1.5110    -0.1600 os         1 2N5      -0.377100
     14 N14         -3.5430    -1.0630    -0.8230 nu         1 2N5      -0.860100
     15 C15         -3.2580     2.8920     0.2240 c3         1 2N5       0.182300
     16 C16         -2.9280     3.7830    -0.9610 c3         1 2N5      -0.109600
     17 C17         -4.6420     3.1710     0.7740 c3         1 2N5      -0.109600
     18 C18          3.8750    -2.3650     0.0390 ca         1 2N5      -0.037500
     19 C19          5.1770    -2.8330     0.1010 ca         1 2N5      -0.160500
     20 C20          6.2100    -1.9480    -0.1340 ca         1 2N5       0.196000
     21 C21          5.9860    -0.6260    -0.4690 ca         1 2N5      -0.160500
     22 C22          4.6810    -0.1720    -0.5370 ca         1 2N5      -0.037500
     23 F23          7.4710    -2.3870    -0.0380 f          1 2N5      -0.173000
     24 O24          3.1980     1.8660     1.3750 o          1 2N5      -0.589100
     25 C25          2.5390     4.3320     0.2640 c3         1 2N5       0.092300
     26 S26         -4.2520    -1.9360     0.4070 s6         1 2N5       1.183100
     27 C27         -4.5270    -0.8120     1.7580 c3         1 2N5      -0.374100
     28 O28         -5.5420    -2.3630    -0.1090 o          1 2N5      -0.528000
     29 O29         -3.2830    -2.9290     0.8400 o          1 2N5      -0.528000
     30 H30         -1.2730    -2.3990    -1.0520 ha         1 2N5       0.163000
     31 H31         -0.6970     2.4120     0.1940 ha         1 2N5       0.132000
     32 H32          1.4270     3.0040    -0.9480 hn         1 2N5       0.318500
     33 H33         -4.2070    -0.4320    -1.2610 hn         1 2N5       0.498000
     34 H34         -2.5260     3.0430     1.0250 h1         1 2N5       0.049700
     35 H35         -3.6830     3.6810    -1.7420 hc         1 2N5       0.049867
     36 H36         -2.9120     4.8250    -0.6410 hc         1 2N5       0.049867
     37 H37         -1.9540     3.5580    -1.3960 hc         1 2N5       0.049867
     38 H38         -4.8670     2.5350     1.6310 hc         1 2N5       0.049867
     39 H39         -4.7000     4.2080     1.1040 hc         1 2N5       0.049867
     40 H40         -5.4070     3.0150     0.0130 hc         1 2N5       0.049867
     41 H41          3.0670    -3.0520     0.2470 ha         1 2N5       0.128000
     42 H42          5.3820    -3.8670     0.3450 ha         1 2N5       0.137500
     43 H43          6.8140     0.0370    -0.6780 ha         1 2N5       0.137500
     44 H44          4.5060     0.8520    -0.8320 ha         1 2N5       0.128000
     45 H45          2.0190     5.1060    -0.2940 h1         1 2N5       0.040700
     46 H46          2.3950     4.5180     1.3270 h1         1 2N5       0.040700
     47 H47          3.6050     4.4040     0.0430 h1         1 2N5       0.040700
     48 H48         -5.1920    -0.0170     1.4330 h1         1 2N5       0.101700
     49 H49         -4.9880    -1.3800     2.5640 h1         1 2N5       0.101700
     50 H50         -3.5770    -0.4030     2.0940 h1         1 2N5       0.101700
@<TRIPOS>BOND
     1     1     2 ar  
     2     1     4 ar  
     3     1    13 1   
     4     2     3 ar  
     5     2    14 1   
     6     3     6 ar  
     7     3    30 1   
     8     4     5 ar  
     9     4    31 1   
    10     5     6 ar  
    11     5     9 1   
    12     6     7 1   
    13     7     8 1   
    14     8     9 2   
    15     8    12 1   
    16     9    10 1   
    17    10    11 1   
    18    10    24 2   
    19    11    25 1   
    20    11    32 1   
    21    12    18 ar  
    22    12    22 ar  
    23    13    15 1   
    24    14    26 1   
    25    14    33 1   
    26    15    16 1   
    27    15    17 1   
    28    15    34 1   
    29    16    35 1   
    30    16    36 1   
    31    16    37 1   
    32    17    38 1   
    33    17    39 1   
    34    17    40 1   
    35    18    19 ar  
    36    18    41 1   
    37    19    20 ar  
    38    19    42 1   
    39    20    21 ar  
    40    20    23 1   
    41    21    22 ar  
    42    21    43 1   
    43    22    44 1   
    44    25    45 1   
    45    25    46 1   
    46    25    47 1   
    47    26    27 1   
    48    26    28 2   
    49    26    29 2   
    50    27    48 1   
    51    27    49 1   
    52    27    50 1   
@<TRIPOS>SUBSTRUCTURE
     1 2N5         1 TEMP              0 ****  ****    0 ROOT
