@<TRIPOS>MOLECULE
2N5
   50    52     1     0     0
SMALL
No Charge or Current Charge


@<TRIPOS>ATOM
      1 C1          -2.1500     1.0050    -0.1620 ca         1 2N5       0.121100
      2 C2          -2.3800    -0.3630    -0.4890 ca         1 2N5       0.208000
      3 C3          -1.2870    -1.2510    -0.5970 ca         1 2N5      -0.020000
      4 C4          -0.8310     1.4740     0.0730 ca         1 2N5      -0.165000
      5 C5           0.2320     0.5620    -0.0620 ca         1 2N5      -0.048800
      6 C6           0.0030    -0.7590    -0.3730 ca         1 2N5       0.026100
      7 O7           1.1490    -1.5230    -0.4160 os         1 2N5      -0.155200
      8 C8           2.1590    -0.6200    -0.1190 cc         1 2N5       0.182900
      9 C9           1.6710     0.6590     0.1010 cd         1 2N5      -0.231400
     10 C10          2.5130     1.8430     0.4430 c          1 2N5       0.636300
     11 N11          1.8430     3.0380     0.4110 ns         1 2N5      -0.506900
     12 C12          3.5580    -1.0380    -0.1580 ca         1 2N5      -0.075800
     13 O13         -3.2590     1.8350    -0.0450 os         1 2N5      -0.377100
     14 N14         -3.6970    -0.7920    -0.7030 nu         1 2N5      -0.860100
     15 C15         -3.1840     3.2700     0.0580 c3         1 2N5       0.182300
     16 C16         -2.7650     3.8400    -1.3160 c3         1 2N5      -0.109600
     17 C17         -4.5830     3.7510     0.4820 c3         1 2N5      -0.109600
     18 C18          4.0090    -2.0490     0.7130 ca         1 2N5      -0.037500
     19 C19          5.3470    -2.4800     0.6650 ca         1 2N5      -0.160500
     20 C20          6.2330    -1.9070    -0.2600 ca         1 2N5       0.196000
     21 C21          5.7890    -0.9120    -1.1430 ca         1 2N5      -0.160500
     22 C22          4.4510    -0.4800    -1.0960 ca         1 2N5      -0.037500
     23 F23          7.5170    -2.3220    -0.3060 f          1 2N5      -0.173000
     24 O24          3.7010     1.7920     0.7240 o          1 2N5      -0.589100
     25 C25          2.4470     4.3380     0.7130 c3         1 2N5       0.092300
     26 S26         -4.4460    -2.1030    -0.0140 s6         1 2N5       1.183100
     27 C27         -4.1880    -1.9000     1.7360 c3         1 2N5      -0.374100
     28 O28         -5.8680    -1.9220    -0.3060 o          1 2N5      -0.528000
     29 O29         -3.7320    -3.2930    -0.4800 o          1 2N5      -0.528000
     30 H30         -1.4290    -2.2940    -0.8550 ha         1 2N5       0.163000
     31 H31         -0.6600     2.4990     0.3720 ha         1 2N5       0.132000
     32 H32          0.8830     3.0070     0.1030 hn         1 2N5       0.318500
     33 H33         -4.3870    -0.0560    -0.6160 hn         1 2N5       0.498000
     34 H34         -2.4710     3.5800     0.8320 h1         1 2N5       0.049700
     35 H35         -3.4600     3.5160    -2.0990 hc         1 2N5       0.049867
     36 H36         -2.7670     4.9360    -1.2900 hc         1 2N5       0.049867
     37 H37         -1.7570     3.5140    -1.5930 hc         1 2N5       0.049867
     38 H38         -4.8580     3.3200     1.4520 hc         1 2N5       0.049867
     39 H39         -4.6020     4.8430     0.5780 hc         1 2N5       0.049867
     40 H40         -5.3390     3.4570    -0.2560 hc         1 2N5       0.049867
     41 H41          3.3220    -2.4970     1.4290 ha         1 2N5       0.128000
     42 H42          5.6970    -3.2550     1.3420 ha         1 2N5       0.137500
     43 H43          6.4790    -0.4780    -1.8610 ha         1 2N5       0.137500
     44 H44          4.1070     0.2880    -1.7860 ha         1 2N5       0.128000
     45 H45          1.6890     5.1260     0.6180 h1         1 2N5       0.040700
     46 H46          2.8390     4.3340     1.7380 h1         1 2N5       0.040700
     47 H47          3.2660     4.5370     0.0100 h1         1 2N5       0.040700
     48 H48         -4.6230    -0.9390     2.0280 h1         1 2N5       0.101700
     49 H49         -4.6910    -2.7330     2.2390 h1         1 2N5       0.101700
     50 H50         -3.1090    -1.9210     1.9170 h1         1 2N5       0.101700
@<TRIPOS>BOND
     1     1     2 ar  
     2     1     4 ar  
     3     1    13 1   
     4     2     3 ar  
     5     2    14 1   
     6     3     6 ar  
     7     3    30 1   
     8     4     5 ar  
     9     4    31 1   
    10     5     6 ar  
    11     5     9 1   
    12     6     7 1   
    13     7     8 1   
    14     8     9 2   
    15     8    12 1   
    16     9    10 1   
    17    10    11 1   
    18    10    24 2   
    19    11    25 1   
    20    11    32 1   
    21    12    18 ar  
    22    12    22 ar  
    23    13    15 1   
    24    14    26 1   
    25    14    33 1   
    26    15    16 1   
    27    15    17 1   
    28    15    34 1   
    29    16    35 1   
    30    16    36 1   
    31    16    37 1   
    32    17    38 1   
    33    17    39 1   
    34    17    40 1   
    35    18    19 ar  
    36    18    41 1   
    37    19    20 ar  
    38    19    42 1   
    39    20    21 ar  
    40    20    23 1   
    41    21    22 ar  
    42    21    43 1   
    43    22    44 1   
    44    25    45 1   
    45    25    46 1   
    46    25    47 1   
    47    26    27 1   
    48    26    28 2   
    49    26    29 2   
    50    27    48 1   
    51    27    49 1   
    52    27    50 1   
@<TRIPOS>SUBSTRUCTURE
     1 2N5         1 TEMP              0 ****  ****    0 ROOT
