@<TRIPOS>MOLECULE
2N6
   35    37     1     0     0
SMALL
No Charge or Current Charge


@<TRIPOS>ATOM
      1 C19         -1.0550     1.8800     1.9890 c3         1 2N6      -0.051800
      2 C17         -1.8600     1.3630     0.8020 ca         1 2N6      -0.024300
      3 C16         -3.2190     1.7210     0.6970 ca         1 2N6      -0.122000
      4 C15         -4.0100     1.2570    -0.3690 ca         1 2N6      -0.053300
      5 C18         -5.4770     1.6490    -0.4620 c3         1 2N6      -0.049800
      6 C14         -3.4360     0.4210    -1.3410 ca         1 2N6      -0.115000
      7 C13         -2.0840     0.0600    -1.2490 ca         1 2N6      -0.074000
      8 C5          -1.2750     0.5210    -0.1830 cp         1 2N6      -0.169500
      9 C4           0.1610     0.1210    -0.1250 cp         1 2N6       0.254500
     10 C8           0.5980    -1.2050     0.0960 ca         1 2N6      -0.165800
     11 N1           1.0850     1.0850    -0.3200 nb         1 2N6      -0.178000
     12 C2           2.3900     0.7280    -0.3000 ca         1 2N6       0.256300
     13 S6           3.5730     2.0470    -0.5640 ss         1 2N6      -0.294300
     14 C7           5.2240     1.2190    -0.4490 c3         1 2N6       0.006900
     15 N3           2.8640    -0.5260    -0.1000 nb         1 2N6      -0.207000
     16 C9           1.9440    -1.4850     0.0990 ca         1 2N6       0.131500
     17 N10          2.0970    -2.8380     0.3360 na         1 2N6      -0.315400
     18 C11          0.8470    -3.4680     0.5060 cc         1 2N6      -0.107100
     19 C12         -0.0910    -2.4560     0.3620 cd         1 2N6      -0.019900
     20 C20         -1.4910    -2.6800     0.4990 ch         1 2N6       0.316700
     21 N21         -2.6320    -2.8960     0.6220 n1         1 2N6      -0.455000
     22 H1          -0.3740     2.6820     1.6810 hc         1 2N6       0.048367
     23 H2          -1.7030     2.2820     2.7770 hc         1 2N6       0.048367
     24 H3          -0.4540     1.0820     2.4410 hc         1 2N6       0.048367
     25 H4          -3.6670     2.3640     1.4530 ha         1 2N6       0.113000
     26 H5          -6.1050     0.9450     0.0960 hc         1 2N6       0.044033
     27 H6          -5.6500     2.6510    -0.0510 hc         1 2N6       0.044033
     28 H7          -5.8240     1.6570    -1.5030 hc         1 2N6       0.044033
     29 H8          -4.0370     0.0510    -2.1680 ha         1 2N6       0.116000
     30 H9          -1.6530    -0.5850    -2.0120 ha         1 2N6       0.117000
     31 H10          5.3440     0.7600     0.5400 h1         1 2N6       0.069700
     32 H11          5.3080     0.4440    -1.2210 h1         1 2N6       0.069700
     33 H12          6.0190     1.9600    -0.5980 h1         1 2N6       0.069700
     34 H13          2.9980    -3.3050     0.3840 hn         1 2N6       0.373000
     35 H14          0.7280    -4.5280     0.7150 h4         1 2N6       0.230000
@<TRIPOS>BOND
     1     1     2 1   
     2     1    22 1   
     3     1    23 1   
     4     1    24 1   
     5     2     3 ar  
     6     2     8 ar  
     7     3     4 ar  
     8     3    25 1   
     9     4     5 1   
    10     4     6 ar  
    11     5    26 1   
    12     5    27 1   
    13     5    28 1   
    14     6     7 ar  
    15     6    29 1   
    16     7     8 ar  
    17     7    30 1   
    18     8     9 1   
    19     9    10 ar  
    20     9    11 ar  
    21    10    16 ar  
    22    10    19 1   
    23    11    12 ar  
    24    12    13 1   
    25    12    15 ar  
    26    13    14 1   
    27    14    31 1   
    28    14    32 1   
    29    14    33 1   
    30    15    16 ar  
    31    16    17 1   
    32    17    18 1   
    33    17    34 1   
    34    18    19 2   
    35    18    35 1   
    36    19    20 1   
    37    20    21 3   
@<TRIPOS>SUBSTRUCTURE
     1 2N6         1 TEMP              0 ****  ****    0 ROOT
