@<TRIPOS>MOLECULE
2N6
   35    37     1     0     0
SMALL
bcc


@<TRIPOS>ATOM
      1 C19         -0.9500     2.0960     1.8150 c3         1 2N6      -0.051800
      2 C17         -1.8050     1.4650     0.7590 ca         1 2N6      -0.024300
      3 C16         -3.1510     1.8310     0.6500 ca         1 2N6      -0.140000
      4 C15         -4.0020     1.2620    -0.3110 ca         1 2N6      -0.053300
      5 C18         -5.4380     1.6800    -0.3940 c3         1 2N6      -0.049800
      6 C14         -3.4650     0.3240    -1.1920 ca         1 2N6      -0.133000
      7 C13         -2.1380    -0.0650    -1.0870 ca         1 2N6      -0.092000
      8 C5          -1.2940     0.5030    -0.1300 cp         1 2N6      -0.169500
      9 C4           0.1180     0.0720    -0.0600 cp         1 2N6       0.582800
     10 C8           0.5070    -1.2650     0.0710 ca         1 2N6      -0.296400
     11 N1           1.0620     1.0080    -0.1970 nb         1 2N6      -0.704000
     12 C2           2.3450     0.6440    -0.1780 ca         1 2N6       0.782300
     13 S6           3.4730     2.0080    -0.3440 ss         1 2N6      -0.246400
     14 C7           5.0640     1.2120    -0.2820 c3         1 2N6      -0.041000
     15 N3           2.8370    -0.5750    -0.0700 nb         1 2N6      -0.733000
     16 C9           1.8930    -1.4920     0.0550 ca         1 2N6       0.459800
     17 N10          2.1200    -2.8210     0.2210 na         1 2N6      -0.265100
     18 C11          0.9330    -3.4670     0.3280 cc         1 2N6      -0.057100
     19 C12         -0.0880    -2.5590     0.2130 cd         1 2N6      -0.019900
     20 C20         -1.4590    -2.8920     0.2860 ch         1 2N6       0.227500
     21 N21         -2.5790    -3.1650     0.3270 n1         1 2N6      -0.365800
     22 H1          -0.2060     2.7610     1.3880 hc         1 2N6       0.048367
     23 H2          -1.5650     2.6700     2.5070 hc         1 2N6       0.048367
     24 H3          -0.4190     1.3420     2.4010 hc         1 2N6       0.048367
     25 H4          -3.5550     2.5730     1.3310 ha         1 2N6       0.131000
     26 H5          -6.0620     1.1050     0.3020 hc         1 2N6       0.044033
     27 H6          -5.5690     2.7290    -0.1470 hc         1 2N6       0.044033
     28 H7          -5.8320     1.5280    -1.3940 hc         1 2N6       0.044033
     29 H8          -4.1030    -0.1370    -1.9350 ha         1 2N6       0.134000
     30 H9          -1.7450    -0.8130    -1.7600 ha         1 2N6       0.135000
     31 H10          5.2320     0.7250     0.6740 h1         1 2N6       0.069700
     32 H11          5.1890     0.4770    -1.0730 h1         1 2N6       0.069700
     33 H12          5.8010     1.9990    -0.4110 h1         1 2N6       0.069700
     34 H13          3.0390    -3.2510     0.2570 hn         1 2N6       0.322700
     35 H14          0.8970    -4.5310     0.4590 h4         1 2N6       0.180000
@<TRIPOS>BOND
     1     1     2 1   
     2     1    22 1   
     3     1    23 1   
     4     1    24 1   
     5     2     3 ar  
     6     2     8 ar  
     7     3     4 ar  
     8     3    25 1   
     9     4     5 1   
    10     4     6 ar  
    11     5    26 1   
    12     5    27 1   
    13     5    28 1   
    14     6     7 ar  
    15     6    29 1   
    16     7     8 ar  
    17     7    30 1   
    18     8     9 1   
    19     9    10 ar  
    20     9    11 ar  
    21    10    16 ar  
    22    10    19 1   
    23    11    12 ar  
    24    12    13 1   
    25    12    15 ar  
    26    13    14 1   
    27    14    31 1   
    28    14    32 1   
    29    14    33 1   
    30    15    16 ar  
    31    16    17 1   
    32    17    18 1   
    33    17    34 1   
    34    18    19 2   
    35    18    35 1   
    36    19    20 1   
    37    20    21 3   
@<TRIPOS>SUBSTRUCTURE
     1 2N6         1 TEMP              0 ****  ****    0 ROOT
