@<TRIPOS>MOLECULE
2N8
   48    50     1     0     0
SMALL
abcg2


@<TRIPOS>ATOM
      1 O29         -4.6430    -2.1930     1.6310 o          1 2N8      -0.514000
      2 S27         -4.3840    -1.8110     0.2450 sy         1 2N8       1.061500
      3 O30         -4.4540    -2.8450    -0.7800 o          1 2N8      -0.514000
      4 C28         -5.4960    -0.4890    -0.1680 c3         1 2N8      -0.337100
      5 C23         -2.7620    -1.0690     0.1980 ca         1 2N8      -0.252500
      6 C22         -2.0840    -0.9130     1.4010 ca         1 2N8      -0.012000
      7 C21         -0.8070    -0.3840     1.4270 ca         1 2N8      -0.100000
      8 C24         -2.1410    -0.6800    -0.9850 ca         1 2N8       0.201000
      9 CL26        -2.9210    -0.8150    -2.5180 cl         1 2N8      -0.165000
     10 C25         -0.8640    -0.1430    -0.9560 ca         1 2N8      -0.123000
     11 C10         -0.1830     0.0060     0.2460 ca         1 2N8      -0.021300
     12 C9           1.2080     0.5850     0.2300 c3         1 2N8      -0.100400
     13 C8           1.4080     1.7130     1.2560 c3         1 2N8      -0.059400
     14 C3           0.4310     2.8630     1.0780 c5         1 2N8      -0.067700
     15 C4           0.6770     4.0100     2.0690 c5         1 2N8      -0.074400
     16 C5          -0.0700     5.1930     1.4620 c5         1 2N8      -0.191400
     17 C1           0.0010     4.9620    -0.0320 c          1 2N8       0.573100
     18 O6          -0.2900     5.7660    -0.8840 o          1 2N8      -0.508100
     19 C2           0.4940     3.5520    -0.2850 c5         1 2N8      -0.195400
     20 C11          2.2310    -0.5140     0.5010 c          1 2N8       0.617100
     21 O13          2.1350    -1.2660     1.4480 o          1 2N8      -0.561100
     22 N14          3.2560    -0.5410    -0.3910 ns         1 2N8      -0.314900
     23 C15          4.3710    -1.3670    -0.4190 ca         1 2N8       0.424900
     24 N16          5.1940    -1.1110    -1.4250 nb         1 2N8      -0.706000
     25 C17          6.2850    -1.8500    -1.5350 ca         1 2N8       0.323900
     26 C18          6.5660    -2.8620    -0.6320 ca         1 2N8       0.256900
     27 N19          5.7430    -3.1210     0.3750 nb         1 2N8      -0.614000
     28 C20          4.6480    -2.3910     0.4980 ca         1 2N8       0.286900
     29 H1          -5.4080     0.2950     0.5800 h1         1 2N8       0.105700
     30 H2          -5.2730    -0.1010    -1.1590 h1         1 2N8       0.105700
     31 H3          -6.5010    -0.9090    -0.1530 h1         1 2N8       0.105700
     32 H4          -2.5560    -1.2050     2.3290 ha         1 2N8       0.152000
     33 H5          -0.3090    -0.2710     2.3790 ha         1 2N8       0.137000
     34 H6          -0.3980     0.1580    -1.8850 ha         1 2N8       0.130000
     35 H7           1.3890     0.9970    -0.7660 hc         1 2N8       0.066700
     36 H8           1.3250     1.3130     2.2700 hc         1 2N8       0.059200
     37 H9           2.4290     2.0940     1.1530 hc         1 2N8       0.059200
     38 H10         -0.5910     2.4980     1.2350 hc         1 2N8       0.060700
     39 H11          0.3460     3.7640     3.0770 hc         1 2N8       0.052700
     40 H12          1.7480     4.2290     2.1190 hc         1 2N8       0.052700
     41 H13         -1.1280     5.1730     1.7460 hc         1 2N8       0.077200
     42 H14          0.3180     6.1740     1.7390 hc         1 2N8       0.077200
     43 H15          1.5330     3.6230    -0.6330 hc         1 2N8       0.072200
     44 H16         -0.0790     3.0690    -1.0790 hc         1 2N8       0.072200
     45 H17          3.2370     0.1250    -1.1500 hn         1 2N8       0.169000
     46 H18          6.9520    -1.6340    -2.3600 h4         1 2N8       0.032100
     47 H19          7.4620    -3.4640    -0.7230 h4         1 2N8       0.035100
     48 H20          3.9880    -2.6160     1.3210 h4         1 2N8       0.062100
@<TRIPOS>BOND
     1     1     2 2   
     2     2     3 2   
     3     2     4 1   
     4     2     5 1   
     5     4    29 1   
     6     4    30 1   
     7     4    31 1   
     8     5     6 ar  
     9     5     8 ar  
    10     6     7 ar  
    11     6    32 1   
    12     7    11 ar  
    13     7    33 1   
    14     8     9 1   
    15     8    10 ar  
    16    10    11 ar  
    17    10    34 1   
    18    11    12 1   
    19    12    13 1   
    20    12    20 1   
    21    12    35 1   
    22    13    14 1   
    23    13    36 1   
    24    13    37 1   
    25    14    15 1   
    26    14    19 1   
    27    14    38 1   
    28    15    16 1   
    29    15    39 1   
    30    15    40 1   
    31    16    17 1   
    32    16    41 1   
    33    16    42 1   
    34    17    18 2   
    35    17    19 1   
    36    19    43 1   
    37    19    44 1   
    38    20    21 2   
    39    20    22 1   
    40    22    23 1   
    41    22    45 1   
    42    23    24 ar  
    43    23    28 ar  
    44    24    25 ar  
    45    25    26 ar  
    46    25    46 1   
    47    26    27 ar  
    48    26    47 1   
    49    27    28 ar  
    50    28    48 1   
@<TRIPOS>SUBSTRUCTURE
     1 2N8         1 TEMP              0 ****  ****    0 ROOT
