@<TRIPOS>MOLECULE
2N8
   48    50     1     0     0
SMALL
No Charge or Current Charge


@<TRIPOS>ATOM
      1 O29         -4.6370    -2.4570     1.5760 o          1 2N8      -0.514000
      2 S27         -4.3300    -1.9970     0.2150 sy         1 2N8       1.061500
      3 O30         -4.4290    -2.9180    -0.9240 o          1 2N8      -0.514000
      4 C28         -5.4500    -0.6380    -0.1280 c3         1 2N8      -0.337100
      5 C23         -2.6970    -1.2210     0.2170 ca         1 2N8      -0.252500
      6 C22         -2.0120    -1.0730     1.4450 ca         1 2N8      -0.012000
      7 C21         -0.7440    -0.4720     1.4860 ca         1 2N8      -0.100000
      8 C24         -2.0870    -0.7490    -0.9680 ca         1 2N8       0.201000
      9 Cl26        -2.8590    -0.8470    -2.5520 cl         1 2N8      -0.165000
     10 C25         -0.8170    -0.1500    -0.9140 ca         1 2N8      -0.123000
     11 C10         -0.1330    -0.0050     0.3070 ca         1 2N8      -0.021300
     12 C9           1.2440     0.6670     0.3380 c3         1 2N8      -0.100400
     13 C8           1.3100     1.8810     1.3110 c3         1 2N8      -0.059400
     14 C3           0.2540     2.9900     1.0580 c5         1 2N8      -0.067700
     15 C4           0.3130     4.1550     2.1120 c5         1 2N8      -0.074400
     16 C5          -0.1730     5.3810     1.2940 c5         1 2N8      -0.191400
     17 C1           0.6360     5.1920     0.0200 c          1 2N8       0.573100
     18 O6           1.6080     5.8430    -0.3420 o          1 2N8      -0.508100
     19 C2           0.3660     3.7290    -0.3260 c5         1 2N8      -0.195400
     20 C11          2.3470    -0.3670     0.6530 c          1 2N8       0.617100
     21 O13          2.4060    -0.9580     1.7220 o          1 2N8      -0.561100
     22 N14          3.2500    -0.5760    -0.3650 ns         1 2N8      -0.314900
     23 C15          4.3620    -1.4310    -0.4420 ca         1 2N8       0.424900
     24 N16          4.9870    -1.3030    -1.6410 nb         1 2N8      -0.706000
     25 C17          6.0830    -2.0970    -1.8110 ca         1 2N8       0.323900
     26 C18          6.5400    -2.9940    -0.8070 ca         1 2N8       0.256900
     27 N19          5.9150    -3.1260     0.3970 nb         1 2N8      -0.614000
     28 C20          4.8170    -2.3330     0.5730 ca         1 2N8       0.286900
     29 H1          -5.3150     0.1190     0.6520 h1         1 2N8       0.105700
     30 H2          -5.2120    -0.2250    -1.1120 h1         1 2N8       0.105700
     31 H3          -6.4720    -1.0300    -0.1120 h1         1 2N8       0.105700
     32 H4          -2.4540    -1.4220     2.3770 ha         1 2N8       0.152000
     33 H5          -0.2370    -0.3730     2.4430 ha         1 2N8       0.137000
     34 H6          -0.3680     0.2120    -1.8350 ha         1 2N8       0.130000
     35 H7           1.4570     1.0550    -0.6650 hc         1 2N8       0.066700
     36 H8           1.2080     1.5190     2.3420 hc         1 2N8       0.059200
     37 H9           2.3150     2.3190     1.2500 hc         1 2N8       0.059200
     38 H10         -0.7280     2.5060     1.1290 hc         1 2N8       0.060700
     39 H11         -0.3160     3.9570     2.9880 hc         1 2N8       0.052700
     40 H12          1.3340     4.3140     2.4790 hc         1 2N8       0.052700
     41 H13         -1.2430     5.2620     1.0840 hc         1 2N8       0.077200
     42 H14          0.0450     6.3390     1.7770 hc         1 2N8       0.077200
     43 H15          1.1380     3.3410    -0.9980 hc         1 2N8       0.072200
     44 H16         -0.6190     3.6720    -0.8030 hc         1 2N8       0.072200
     45 H17          3.0970    -0.0300    -1.2010 hn         1 2N8       0.169000
     46 H18          6.6050    -2.0160    -2.7630 h4         1 2N8       0.032100
     47 H19          7.4200    -3.6150    -0.9740 h4         1 2N8       0.035100
     48 H20          4.3110    -2.4310     1.5290 h4         1 2N8       0.062100
@<TRIPOS>BOND
     1     1     2 2   
     2     2     3 2   
     3     2     4 1   
     4     2     5 1   
     5     4    29 1   
     6     4    30 1   
     7     4    31 1   
     8     5     6 ar  
     9     5     8 ar  
    10     6     7 ar  
    11     6    32 1   
    12     7    11 ar  
    13     7    33 1   
    14     8     9 1   
    15     8    10 ar  
    16    10    11 ar  
    17    10    34 1   
    18    11    12 1   
    19    12    13 1   
    20    12    20 1   
    21    12    35 1   
    22    13    14 1   
    23    13    36 1   
    24    13    37 1   
    25    14    15 1   
    26    14    19 1   
    27    14    38 1   
    28    15    16 1   
    29    15    39 1   
    30    15    40 1   
    31    16    17 1   
    32    16    41 1   
    33    16    42 1   
    34    17    18 2   
    35    17    19 1   
    36    19    43 1   
    37    19    44 1   
    38    20    21 2   
    39    20    22 1   
    40    22    23 1   
    41    22    45 1   
    42    23    24 ar  
    43    23    28 ar  
    44    24    25 ar  
    45    25    26 ar  
    46    25    46 1   
    47    26    27 ar  
    48    26    47 1   
    49    27    28 ar  
    50    28    48 1   
@<TRIPOS>SUBSTRUCTURE
     1 2N8         1 TEMP              0 ****  ****    0 ROOT
