@<TRIPOS>MOLECULE
2N9
   28    29     1     0     0
SMALL
No Charge or Current Charge


@<TRIPOS>ATOM
      1 CAA          5.1730     1.2570    -0.3380 c3         1 2N9      -0.098100
      2 CAD         -4.3210     0.7890    -0.0870 ca         1 2N9      -0.082000
      3 CAE         -4.1960    -0.5980    -0.2460 ca         1 2N9      -0.128000
      4 CAF         -3.1710     1.5740     0.0920 ca         1 2N9      -0.100000
      5 CAG         -2.9270    -1.1960    -0.2230 ca         1 2N9      -0.079000
      6 CAH          0.4120     1.2400     0.3090 ca         1 2N9       0.446900
      7 CAI          4.3660    -0.0080    -0.0040 c3         1 2N9       0.170600
      8 CAL          2.0500    -0.6270     0.2200 c          1 2N9       0.639700
      9 CAM         -0.4660    -0.9650    -0.0050 ca         1 2N9       0.457000
     10 CAN          0.6420    -0.1300     0.1700 ca         1 2N9      -0.349600
     11 CAO         -1.8890     0.9930     0.1180 ca         1 2N9       0.323000
     12 CAP         -1.7620    -0.4070    -0.0370 ca         1 2N9      -0.158000
     13 NAJ         -0.8170     1.7900     0.2880 nb         1 2N9      -0.718000
     14 OAC          2.3540    -1.7750     0.5190 o          1 2N9      -0.550000
     15 OAK          2.9740     0.3470    -0.0450 os         1 2N9      -0.443100
     16 H1           4.9150     1.6270    -1.3370 hc         1 2N9       0.047367
     17 H2           4.9710     2.0480     0.3940 hc         1 2N9       0.047367
     18 H3           6.2470     1.0370    -0.3190 hc         1 2N9       0.047367
     19 H4          -5.3030     1.2550    -0.1050 ha         1 2N9       0.117000
     20 H5          -5.0840    -1.2100    -0.3890 ha         1 2N9       0.115000
     21 H6          -3.2710     2.6490     0.2120 ha         1 2N9       0.134000
     22 H7          -2.8670    -2.2730    -0.3560 ha         1 2N9       0.101000
     23 H8           1.2290     1.9450     0.4610 h4         1 2N9       0.031100
     24 H9           4.5930    -0.7920    -0.7390 h1         1 2N9       0.048200
     25 H10          4.6500    -0.3700     0.9930 h1         1 2N9       0.048200
     26 H11         -1.0590    -2.9290     0.0500 hn         1 2N9       0.513000
     27 H12          0.6460    -2.6670     0.0920 hn         1 2N9       0.513000
     28 NAB         -0.2800    -2.3100    -0.1520 nv         1 2N9      -1.093000
@<TRIPOS>BOND
     1     1     7 1   
     2     1    16 1   
     3     1    17 1   
     4     1    18 1   
     5     2     3 ar  
     6     2     4 ar  
     7     2    19 1   
     8     3     5 ar  
     9     3    20 1   
    10     4    11 ar  
    11     4    21 1   
    12     5    12 ar  
    13     5    22 1   
    14     6    10 ar  
    15     6    13 ar  
    16     6    23 1   
    17     7    15 1   
    18     7    24 1   
    19     7    25 1   
    20     8    10 1   
    21     8    14 2   
    22     8    15 1   
    23     9    10 ar  
    24     9    12 ar  
    25     9    28 1   
    26    11    12 ar  
    27    11    13 ar  
    28    26    28 1   
    29    27    28 1   
@<TRIPOS>SUBSTRUCTURE
     1 2N9         1 TEMP              0 ****  ****    0 ROOT
