@<TRIPOS>MOLECULE
2N9
   28    29     1     0     0
SMALL
abcg2


@<TRIPOS>ATOM
      1 CAA          5.1310     1.2730    -0.1150 c3         1 2N9      -0.098100
      2 CAD         -4.2710     0.7980    -0.0260 ca         1 2N9      -0.082000
      3 CAE         -4.1640    -0.6010    -0.0530 ca         1 2N9      -0.128000
      4 CAF         -3.1410     1.5740     0.0050 ca         1 2N9      -0.100000
      5 CAG         -2.9280    -1.1950    -0.0460 ca         1 2N9      -0.079000
      6 CAH          0.3950     1.2700     0.0450 ca         1 2N9       0.446900
      7 CAI          4.3300     0.0010     0.0210 c3         1 2N9       0.170600
      8 CAL          2.0400    -0.6120     0.0330 c          1 2N9       0.639700
      9 CAM         -0.4310    -1.0080    -0.0020 ca         1 2N9       0.457000
     10 CAN          0.6600    -0.1180     0.0250 ca         1 2N9      -0.349600
     11 CAO         -1.8600     0.9870     0.0110 ca         1 2N9       0.323000
     12 CAP         -1.7500    -0.4210    -0.0130 ca         1 2N9      -0.158000
     13 NAJ         -0.7830     1.8200     0.0410 nb         1 2N9      -0.718000
     14 OAC          2.3530    -1.7880     0.0510 o          1 2N9      -0.550000
     15 OAK          2.9400     0.3590     0.0150 os         1 2N9      -0.443100
     16 H1           4.9120     1.7870    -1.0500 hc         1 2N9       0.047367
     17 H2           4.9440     1.9580     0.7120 hc         1 2N9       0.047367
     18 H3           6.1920     1.0260    -0.1100 hc         1 2N9       0.047367
     19 H4          -5.2480     1.2640    -0.0300 ha         1 2N9       0.117000
     20 H5          -5.0550    -1.2130    -0.0800 ha         1 2N9       0.115000
     21 H6          -3.2060     2.6540     0.0250 ha         1 2N9       0.134000
     22 H7          -2.8870    -2.2760    -0.0660 ha         1 2N9       0.101000
     23 H8           1.2330     1.9570     0.0690 h4         1 2N9       0.031100
     24 H9           4.5410    -0.6820    -0.8030 h1         1 2N9       0.048200
     25 H10          4.5720    -0.5120     0.9550 h1         1 2N9       0.048200
     26 H11         -1.0670    -2.9560    -0.0510 hn         1 2N9       0.513000
     27 H12          0.6420    -2.7250    -0.0080 hn         1 2N9       0.513000
     28 NAB         -0.2840    -2.3290    -0.0190 nv         1 2N9      -1.093000
@<TRIPOS>BOND
     1     1     7 1   
     2     1    16 1   
     3     1    17 1   
     4     1    18 1   
     5     2     3 ar  
     6     2     4 ar  
     7     2    19 1   
     8     3     5 ar  
     9     3    20 1   
    10     4    11 ar  
    11     4    21 1   
    12     5    12 ar  
    13     5    22 1   
    14     6    10 ar  
    15     6    13 ar  
    16     6    23 1   
    17     7    15 1   
    18     7    24 1   
    19     7    25 1   
    20     8    10 1   
    21     8    14 2   
    22     8    15 1   
    23     9    10 ar  
    24     9    12 ar  
    25     9    28 1   
    26    11    12 ar  
    27    11    13 ar  
    28    26    28 1   
    29    27    28 1   
@<TRIPOS>SUBSTRUCTURE
     1 2N9         1 TEMP              0 ****  ****    0 ROOT
