@<TRIPOS>MOLECULE
2NA
   22    23     1     0     0
SMALL
No Charge or Current Charge


@<TRIPOS>ATOM
      1 C1           0.6600    -0.5750    -0.1190 ca         1 2NA      -0.038000
      2 C2          -0.6930    -0.9300    -0.2720 ca         1 2NA      -0.087000
      3 C3          -1.6930     0.0630    -0.3000 ca         1 2NA      -0.083300
      4 C4          -1.3260     1.4170    -0.1720 ca         1 2NA      -0.084000
      5 C5           0.0240     1.7770    -0.0190 ca         1 2NA      -0.104000
      6 C6           1.0210     0.7850     0.0080 ca         1 2NA      -0.032000
      7 C7           2.3750     1.1400     0.1610 ca         1 2NA      -0.099000
      8 C8           3.3660     0.1430     0.1870 ca         1 2NA      -0.106000
      9 C9           3.0080    -1.2100     0.0610 ca         1 2NA      -0.109000
     10 C30          1.6570    -1.5690    -0.0910 ca         1 2NA      -0.096000
     11 C31         -3.1560    -0.3240    -0.4710 c3         1 2NA       0.208900
     12 O31         -3.7700    -0.5280     0.8070 oh         1 2NA      -0.654000
     13 H2          -0.9720    -1.9770    -0.3680 ha         1 2NA       0.111000
     14 H4          -2.0900     2.1920    -0.1900 ha         1 2NA       0.119000
     15 H5           0.2920     2.8260     0.0790 ha         1 2NA       0.113000
     16 H7           2.6600     2.1850     0.2590 ha         1 2NA       0.113000
     17 H8           4.4110     0.4200     0.3060 ha         1 2NA       0.112000
     18 H9           3.7760    -1.9800     0.0820 ha         1 2NA       0.112000
     19 H30          1.3880    -2.6190    -0.1880 ha         1 2NA       0.112000
     20 H31         -3.6790     0.4690    -1.0220 h1         1 2NA       0.025200
     21 H31A        -3.2210    -1.2400    -1.0740 h1         1 2NA       0.025200
     22 HO31        -4.7050    -0.7740     0.6330 ho         1 2NA       0.441000
@<TRIPOS>BOND
     1     1     2 ar  
     2     1     6 ar  
     3     1    10 ar  
     4     2     3 ar  
     5     2    13 1   
     6     3     4 ar  
     7     3    11 1   
     8     4     5 ar  
     9     4    14 1   
    10     5     6 ar  
    11     5    15 1   
    12     6     7 ar  
    13     7     8 ar  
    14     7    16 1   
    15     8     9 ar  
    16     8    17 1   
    17     9    10 ar  
    18     9    18 1   
    19    10    19 1   
    20    11    12 1   
    21    11    20 1   
    22    11    21 1   
    23    12    22 1   
@<TRIPOS>SUBSTRUCTURE
     1 2NA         1 TEMP              0 ****  ****    0 ROOT
