@<TRIPOS>MOLECULE
2NA
   22    23     1     0     0
SMALL
abcg2


@<TRIPOS>ATOM
      1 C1           0.6800    -0.6060    -0.1450 ca         1 2NA      -0.038000
      2 C2          -0.6780    -0.9780    -0.2900 ca         1 2NA      -0.087000
      3 C3          -1.6820    -0.0490    -0.2500 ca         1 2NA      -0.083300
      4 C4          -1.3520     1.3140    -0.0430 ca         1 2NA      -0.084000
      5 C5          -0.0520     1.7060     0.1050 ca         1 2NA      -0.104000
      6 C6           1.0010     0.7600     0.0580 ca         1 2NA      -0.032000
      7 C7           2.3570     1.1340     0.2060 ca         1 2NA      -0.099000
      8 C8           3.3490     0.1920     0.1540 ca         1 2NA      -0.106000
      9 C9           3.0300    -1.1670    -0.0460 ca         1 2NA      -0.109000
     10 C30          1.7260    -1.5570    -0.1910 ca         1 2NA      -0.096000
     11 C31         -3.1180    -0.4430    -0.4380 c3         1 2NA       0.208900
     12 O31         -3.8730     0.0370     0.6540 oh         1 2NA      -0.654000
     13 H2          -0.9150    -2.0260    -0.4390 ha         1 2NA       0.111000
     14 H4          -2.1420     2.0540    -0.0070 ha         1 2NA       0.119000
     15 H5           0.1870     2.7510     0.2580 ha         1 2NA       0.113000
     16 H7           2.6000     2.1780     0.3630 ha         1 2NA       0.113000
     17 H8           4.3840     0.4870     0.2690 ha         1 2NA       0.112000
     18 H9           3.8230    -1.9020    -0.0850 ha         1 2NA       0.112000
     19 H30          1.4810    -2.6010    -0.3440 ha         1 2NA       0.112000
     20 H31         -3.4810    -0.0190    -1.3830 h1         1 2NA       0.025200
     21 H31A        -3.1870    -1.5340    -0.5340 h1         1 2NA       0.025200
     22 HO31        -4.8040    -0.0400     0.4270 ho         1 2NA       0.441000
@<TRIPOS>BOND
     1     1     2 ar  
     2     1     6 ar  
     3     1    10 ar  
     4     2     3 ar  
     5     2    13 1   
     6     3     4 ar  
     7     3    11 1   
     8     4     5 ar  
     9     4    14 1   
    10     5     6 ar  
    11     5    15 1   
    12     6     7 ar  
    13     7     8 ar  
    14     7    16 1   
    15     8     9 ar  
    16     8    17 1   
    17     9    10 ar  
    18     9    18 1   
    19    10    19 1   
    20    11    12 1   
    21    11    20 1   
    22    11    21 1   
    23    12    22 1   
@<TRIPOS>SUBSTRUCTURE
     1 2NA         1 TEMP              0 ****  ****    0 ROOT
