@<TRIPOS>MOLECULE
2NB
   21    22     1     0     0
SMALL
bcc


@<TRIPOS>ATOM
      1 OAB          3.1930     0.9730     0.0500 o          1 2NB      -0.243500
      2 NAN          2.7120    -0.1480     0.0050 no         1 2NB       0.343200
      3 OAC          3.4040    -1.1430    -0.0460 o          1 2NB      -0.243500
      4 CAK          1.2970    -0.2950     0.0110 ca         1 2NB      -0.456500
      5 CAH          0.7810    -1.6120    -0.0440 ca         1 2NB       0.516200
      6 NAI         -0.4770    -1.9110    -0.0500 nb         1 2NB      -0.698000
      7 CAL         -1.3710    -0.8800    -0.0010 ca         1 2NB       0.454600
      8 CAF         -2.7390    -1.2110    -0.0120 ca         1 2NB      -0.179300
      9 CAD         -3.6980    -0.2310     0.0320 ca         1 2NB      -0.092000
     10 CAE         -3.3220     1.1180     0.0880 ca         1 2NB      -0.138000
     11 CAG         -1.9930     1.4630     0.1000 ca         1 2NB      -0.097000
     12 CAM         -0.9900     0.4760     0.0570 ca         1 2NB      -0.223300
     13 CAJ          0.4200     0.8070     0.0690 ca         1 2NB       0.336600
     14 NAA          0.8010     2.0730     0.1300 nv         1 2NB      -0.819200
     15 H1           1.4770    -2.4400    -0.0840 h4         1 2NB       0.051100
     16 H2          -3.0100    -2.2580    -0.0560 ha         1 2NB       0.158000
     17 H3          -4.7470    -0.4970     0.0230 ha         1 2NB       0.141000
     18 H4          -4.0770     1.8910     0.1210 ha         1 2NB       0.139000
     19 H5          -1.7480     2.5150     0.1410 ha         1 2NB       0.122000
     20 H6           0.1350     2.8230     0.1780 hn         1 2NB       0.465300
     21 H7           1.7770     2.3120     0.1450 hn         1 2NB       0.465300
@<TRIPOS>BOND
     1     1     2 1   
     2     2     3 1   
     3     2     4 1   
     4     4     5 ar  
     5     4    13 ar  
     6     5     6 ar  
     7     5    15 1   
     8     6     7 ar  
     9     7     8 ar  
    10     7    12 ar  
    11     8     9 ar  
    12     8    16 1   
    13     9    10 ar  
    14     9    17 1   
    15    10    11 ar  
    16    10    18 1   
    17    11    12 ar  
    18    11    19 1   
    19    12    13 ar  
    20    13    14 1   
    21    14    20 1   
    22    14    21 1   
@<TRIPOS>SUBSTRUCTURE
     1 2NB         1 TEMP              0 ****  ****    0 ROOT
