@<TRIPOS>MOLECULE
2NB
   21    22     1     0     0
SMALL
No Charge or Current Charge


@<TRIPOS>ATOM
      1 OAB          3.2460     0.8240     0.6390 o          1 2NB      -0.433500
      2 NAN          2.7590    -0.0920    -0.0350 no         1 2NB       0.723200
      3 OAC          3.4360    -0.9320    -0.6370 o          1 2NB      -0.433500
      4 CAK          1.3030    -0.2860    -0.0030 ca         1 2NB      -0.391200
      5 CAH          0.8290    -1.5950     0.0020 ca         1 2NB       0.450900
      6 NAI         -0.4830    -1.8970     0.0260 nb         1 2NB      -0.698000
      7 CAL         -1.3860    -0.8960     0.0340 ca         1 2NB       0.324000
      8 CAF         -2.7550    -1.2200     0.0530 ca         1 2NB      -0.096000
      9 CAD         -3.7380    -0.2180     0.0550 ca         1 2NB      -0.074000
     10 CAE         -3.3560     1.1290     0.0350 ca         1 2NB      -0.120000
     11 CAG         -1.9950     1.4740     0.0170 ca         1 2NB      -0.079000
     12 CAM         -0.9970     0.4640     0.0200 ca         1 2NB      -0.158000
     13 CAJ          0.3830     0.7630     0.0060 ca         1 2NB       0.475000
     14 NAA          0.8190     2.0570    -0.0190 nv         1 2NB      -1.068000
     15 H1           1.5090    -2.4480    -0.0000 h4         1 2NB       0.051100
     16 H2          -3.0550    -2.2640     0.0650 ha         1 2NB       0.140000
     17 H3          -4.7920    -0.4880     0.0690 ha         1 2NB       0.123000
     18 H4          -4.1150     1.9090     0.0330 ha         1 2NB       0.121000
     19 H5          -1.7370     2.5290    -0.0040 ha         1 2NB       0.104000
     20 H6           0.1650     2.7860     0.2510 hn         1 2NB       0.520500
     21 H7           1.7870     2.2250     0.2510 hn         1 2NB       0.520500
@<TRIPOS>BOND
     1     1     2 1   
     2     2     3 1   
     3     2     4 1   
     4     4     5 ar  
     5     4    13 ar  
     6     5     6 ar  
     7     5    15 1   
     8     6     7 ar  
     9     7     8 ar  
    10     7    12 ar  
    11     8     9 ar  
    12     8    16 1   
    13     9    10 ar  
    14     9    17 1   
    15    10    11 ar  
    16    10    18 1   
    17    11    12 ar  
    18    11    19 1   
    19    12    13 ar  
    20    13    14 1   
    21    14    20 1   
    22    14    21 1   
@<TRIPOS>SUBSTRUCTURE
     1 2NB         1 TEMP              0 ****  ****    0 ROOT
