@<TRIPOS>MOLECULE
2NC
  122   121     1     0     0
SMALL
No Charge or Current Charge


@<TRIPOS>ATOM
      1 C           10.7080     1.9820    -0.3880 c          1 2NC       0.603100
      2 O           10.7010     2.4560    -1.5140 o          1 2NC      -0.609100
      3 CH3         11.7990     2.2960     0.6260 c3         1 2NC      -0.179100
      4 N            9.7280     1.1290     0.0660 ns         1 2NC      -0.502900
      5 CA           8.5350     0.6920    -0.7150 c3         1 2NC      -0.008300
      6 C1           7.2970     0.5780     0.2150 c          1 2NC       0.604100
      7 O1           7.3780     0.5800     1.4380 o          1 2NC      -0.606100
      8 CB           8.7700    -0.6380    -1.4930 c3         1 2NC       0.162300
      9 OG1          9.3020    -1.6360    -0.6140 oh         1 2NC      -0.650000
     10 CG2          9.7250    -0.4900    -2.6940 c3         1 2NC      -0.125100
     11 N1           6.0830     0.4860    -0.4340 ns         1 2NC      -0.487900
     12 CA1          4.7610     0.3750     0.2280 c3         1 2NC       0.030700
     13 C2           3.8640    -0.6390    -0.5410 c          1 2NC       0.592100
     14 O2           4.1130    -1.0220    -1.6790 o          1 2NC      -0.619100
     15 CB1          4.0680     1.7670     0.3850 c3         1 2NC      -0.068700
     16 CG1          3.8800     2.4970    -0.9790 c3         1 2NC      -0.073400
     17 CG21         4.7900     2.6520     1.4310 c3         1 2NC      -0.087100
     18 CD1          2.9970     3.7620    -0.9210 c3         1 2NC      -0.090100
     19 N2           2.7630    -1.0850     0.1590 ns         1 2NC      -0.483900
     20 CA2          1.7090    -1.9560    -0.3800 c3         1 2NC       0.110700
     21 C3           0.3130    -1.4970     0.1260 c3         1 2NC       0.136800
     22 CB2          1.9620    -3.4500    -0.0460 c3         1 2NC      -0.083400
     23 CG           3.2850    -4.0290    -0.6010 c3         1 2NC      -0.074400
     24 CD           3.4500    -5.5370    -0.3150 c3         1 2NC      -0.073400
     25 CE           4.7690    -6.1140    -0.8630 c3         1 2NC      -0.089100
     26 N3           0.1010    -0.0440    -0.0710 n7         1 2NC      -0.858400
     27 CA3         -1.2220     0.4880     0.3820 c3         1 2NC       0.106500
     28 C4          -2.4240    -0.0200    -0.4900 c          1 2NC       0.562100
     29 O3          -2.5360     0.2380    -1.6830 o          1 2NC      -0.624100
     30 CB3         -1.1810     2.0370     0.4180 c3         1 2NC      -0.069400
     31 CG3         -0.2060     2.6150     1.4720 c3         1 2NC      -0.073400
     32 CD2         -0.2100     4.1590     1.5190 c3         1 2NC      -0.075400
     33 CE1          0.8140     4.7320     2.5180 c3         1 2NC      -0.090100
     34 N4          -3.3510    -0.7930     0.1810 ns         1 2NC      -0.480900
     35 CA4         -4.5710    -1.3830    -0.4170 c3         1 2NC       0.030700
     36 C5          -5.7560    -1.2820     0.5870 c          1 2NC       0.588100
     37 O4          -5.6020    -1.0440     1.7790 o          1 2NC      -0.585100
     38 CB4         -4.3310    -2.8540    -0.8570 c3         1 2NC      -0.075400
     39 CG4         -3.2840    -3.0250    -1.9900 c3         1 2NC      -0.161400
     40 CD3         -3.0690    -4.4610    -2.4820 c          1 2NC       0.601100
     41 OE1         -3.6470    -5.4330    -2.0260 o          1 2NC      -0.593100
     42 NE2         -2.1740    -4.6060    -3.4810 nt         1 2NC      -0.610000
     43 N5          -7.0070    -1.4770     0.0370 ns         1 2NC      -0.489900
     44 CA5         -8.2870    -1.4340     0.7820 c3         1 2NC       0.027700
     45 C6          -9.2360    -2.5690     0.2890 c          1 2NC       0.586100
     46 O5          -8.9820    -3.3020    -0.6550 o          1 2NC      -0.577100
     47 CB5         -8.9570    -0.0320     0.6980 c3         1 2NC      -0.081400
     48 CG5         -8.0980     1.1300     1.2540 c3         1 2NC      -0.096400
     49 CD4         -8.8340     2.4820     1.2230 c3         1 2NC       0.059600
     50 NE          -7.9650     3.5400     1.7690 nu         1 2NC      -0.891000
     51 CZ          -8.2140     4.8260     1.9060 cz         1 2NC       0.934600
     52 NH1         -9.3540     5.3240     1.5280 nv         1 2NC      -0.609800
     53 NH2         -7.3050     5.5940     2.4250 nv         1 2NC      -0.609800
     54 N6         -10.4020    -2.7210     0.9580 nt         1 2NC      -0.602000
     55 H1          11.3360     2.6910     1.5370 hc         1 2NC       0.063700
     56 H2          12.2420     1.3570     0.9770 hc         1 2NC       0.063700
     57 H3          12.5580     2.9790     0.2300 hc         1 2NC       0.063700
     58 H            9.7890     0.8450     1.0390 hn         1 2NC       0.334500
     59 HA           8.2870     1.4760    -1.4430 h1         1 2NC       0.094700
     60 HB           7.8050    -0.9780    -1.8950 h1         1 2NC       0.078700
     61 HG1         10.1580    -1.2890    -0.2830 ho         1 2NC       0.445000
     62 HG21        10.7360    -0.2170    -2.3710 hc         1 2NC       0.049700
     63 HG22         9.7890    -1.4330    -3.2510 hc         1 2NC       0.049700
     64 HG23         9.3620     0.2830    -3.3810 hc         1 2NC       0.049700
     65 H4           6.1020     0.4680    -1.4480 hn         1 2NC       0.331500
     66 HA1          4.9040    -0.0580     1.2270 h1         1 2NC       0.093700
     67 HB1          3.0660     1.5780     0.7890 hc         1 2NC       0.053700
     68 HG12         4.8600     2.7740    -1.3880 hc         1 2NC       0.042200
     69 HG13         3.4240     1.8080    -1.7010 hc         1 2NC       0.042200
     70 HG24         4.1920     3.5350     1.6840 hc         1 2NC       0.041367
     71 HG25         4.9580     2.0950     2.3600 hc         1 2NC       0.041367
     72 HG26         5.7620     2.9950     1.0550 hc         1 2NC       0.041367
     73 HD11         2.8660     4.1780    -1.9260 hc         1 2NC       0.031700
     74 HD12         2.0050     3.5210    -0.5230 hc         1 2NC       0.031700
     75 HD13         3.4490     4.5380    -0.2930 hc         1 2NC       0.031700
     76 H5           2.6020    -0.6700     1.0680 hn         1 2NC       0.321500
     77 HA2          1.7060    -1.8510    -1.4740 h1         1 2NC       0.074700
     78 HC31        -0.4560    -2.0740    -0.4030 h1         1 2NC       0.038200
     79 HC32         0.2290    -1.7400     1.1940 h1         1 2NC       0.038200
     80 HB2          1.9450    -3.5810     1.0430 hc         1 2NC       0.040200
     81 HB3          1.1280    -4.0400    -0.4460 hc         1 2NC       0.040200
     82 HG2          3.3260    -3.8610    -1.6850 hc         1 2NC       0.051700
     83 HG3          4.1340    -3.4930    -0.1590 hc         1 2NC       0.051700
     84 HD2          3.4080    -5.7090     0.7680 hc         1 2NC       0.033200
     85 HD3          2.6100    -6.0860    -0.7580 hc         1 2NC       0.033200
     86 HE1          4.8410    -7.1850    -0.6360 hc         1 2NC       0.034367
     87 HE2          4.8250    -5.9890    -1.9510 hc         1 2NC       0.034367
     88 HE3          5.6310    -5.6090    -0.4110 hc         1 2NC       0.034367
     89 H6           0.2050     0.1730    -1.0710 hn         1 2NC       0.436000
     90 HA3         -1.4140     0.1510     1.4100 h1         1 2NC       0.066700
     91 HB21        -0.9150     2.4180    -0.5760 hc         1 2NC       0.053200
     92 HB31        -2.1900     2.4080     0.6360 hc         1 2NC       0.053200
     93 HG27        -0.4720     2.2250     2.4630 hc         1 2NC       0.045700
     94 HG31         0.8100     2.2660     1.2580 hc         1 2NC       0.045700
     95 HD21         0.0070     4.5560     0.5200 hc         1 2NC       0.036700
     96 HD31        -1.2120     4.5120     1.7920 hc         1 2NC       0.036700
     97 HE11         0.6050     4.3790     3.5350 hc         1 2NC       0.035367
     98 HE21         1.8320     4.4260     2.2470 hc         1 2NC       0.035367
     99 HE31         0.7750     5.8280     2.5190 hc         1 2NC       0.035367
    100 H7          -3.1970    -0.9330     1.1740 hn         1 2NC       0.328500
    101 HA4         -4.8590    -0.7920    -1.2970 h1         1 2NC       0.076700
    102 HB22        -4.0220    -3.4440     0.0150 hc         1 2NC       0.080700
    103 HB32        -5.2810    -3.2840    -1.2000 hc         1 2NC       0.080700
    104 HG28        -3.5200    -2.4020    -2.8610 hc         1 2NC       0.057700
    105 HG32        -2.3030    -2.6270    -1.7110 hc         1 2NC       0.057700
    106 HE22        -1.7000    -3.7990    -3.8570 hn         1 2NC       0.316500
    107 HE23        -1.9890    -5.5280    -3.8480 hn         1 2NC       0.316500
    108 H8          -7.0420    -1.6980    -0.9530 hn         1 2NC       0.318500
    109 HA5         -8.0860    -1.6530     1.8390 h1         1 2NC       0.085700
    110 HB23        -9.2110     0.1790    -0.3490 hc         1 2NC       0.060200
    111 HB33        -9.9040    -0.0520     1.2500 hc         1 2NC       0.060200
    112 HG29        -7.8070     0.9000     2.2870 hc         1 2NC       0.069700
    113 HG33        -7.1760     1.2180     0.6670 hc         1 2NC       0.069700
    114 HD22        -9.1140     2.7140     0.1850 h1         1 2NC       0.066200
    115 HD32        -9.7570     2.4030     1.8150 h1         1 2NC       0.066200
    116 HE          -7.0520     3.2370     2.0900 hn         1 2NC       0.376000
    117 HH11       -10.0630     4.7350     1.1260 hn         1 2NC       0.379500
    118 HH12        -9.5710     6.3020     1.6200 hn         1 2NC       0.379500
    119 HH21        -6.4180     5.2300     2.7290 hn         1 2NC       0.379500
    120 HH22        -7.4510     6.5820     2.5510 hn         1 2NC       0.379500
    121 HN1        -10.6220    -2.1260     1.7430 hn         1 2NC       0.320500
    122 HN2        -11.0450    -3.4430     0.6680 hn         1 2NC       0.320500
@<TRIPOS>BOND
     1     1     2 2   
     2     1     3 1   
     3     1     4 1   
     4     3    55 1   
     5     3    56 1   
     6     3    57 1   
     7     4     5 1   
     8     4    58 1   
     9     5     6 1   
    10     5     8 1   
    11     5    59 1   
    12     6     7 2   
    13     6    11 1   
    14     8     9 1   
    15     8    10 1   
    16     8    60 1   
    17     9    61 1   
    18    10    62 1   
    19    10    63 1   
    20    10    64 1   
    21    11    12 1   
    22    11    65 1   
    23    12    13 1   
    24    12    15 1   
    25    12    66 1   
    26    13    14 2   
    27    13    19 1   
    28    15    16 1   
    29    15    17 1   
    30    15    67 1   
    31    16    18 1   
    32    16    68 1   
    33    16    69 1   
    34    17    70 1   
    35    17    71 1   
    36    17    72 1   
    37    18    73 1   
    38    18    74 1   
    39    18    75 1   
    40    19    20 1   
    41    19    76 1   
    42    20    21 1   
    43    20    22 1   
    44    20    77 1   
    45    21    26 1   
    46    21    78 1   
    47    21    79 1   
    48    22    23 1   
    49    22    80 1   
    50    22    81 1   
    51    23    24 1   
    52    23    82 1   
    53    23    83 1   
    54    24    25 1   
    55    24    84 1   
    56    24    85 1   
    57    25    86 1   
    58    25    87 1   
    59    25    88 1   
    60    26    27 1   
    61    26    89 1   
    62    27    28 1   
    63    27    30 1   
    64    27    90 1   
    65    28    29 2   
    66    28    34 1   
    67    30    31 1   
    68    30    91 1   
    69    30    92 1   
    70    31    32 1   
    71    31    93 1   
    72    31    94 1   
    73    32    33 1   
    74    32    95 1   
    75    32    96 1   
    76    33    97 1   
    77    33    98 1   
    78    33    99 1   
    79    34    35 1   
    80    34   100 1   
    81    35    36 1   
    82    35    38 1   
    83    35   101 1   
    84    36    37 2   
    85    36    43 1   
    86    38    39 1   
    87    38   102 1   
    88    38   103 1   
    89    39    40 1   
    90    39   104 1   
    91    39   105 1   
    92    40    41 2   
    93    40    42 1   
    94    42   106 1   
    95    42   107 1   
    96    43    44 1   
    97    43   108 1   
    98    44    45 1   
    99    44    47 1   
   100    44   109 1   
   101    45    46 2   
   102    45    54 1   
   103    47    48 1   
   104    47   110 1   
   105    47   111 1   
   106    48    49 1   
   107    48   112 1   
   108    48   113 1   
   109    49    50 1   
   110    49   114 1   
   111    49   115 1   
   112    50    51 2   
   113    50   116 1   
   114    51    52 1   
   115    51    53 1   
   116    52   117 1   
   117    52   118 1   
   118    53   119 1   
   119    53   120 1   
   120    54   121 1   
   121    54   122 1   
@<TRIPOS>SUBSTRUCTURE
     1 2NC         1 TEMP              0 ****  ****    0 ROOT
