@<TRIPOS>MOLECULE
2NC
  122   121     1     0     0
SMALL
bcc


@<TRIPOS>ATOM
      1 C            9.5590     3.5000     0.0700 c          1 2NC       0.670100
      2 O            9.1340     4.4440    -0.5790 o          1 2NC      -0.609100
      3 CH3         10.7600     3.6280     0.9730 c3         1 2NC      -0.179100
      4 N            8.9900     2.2770     0.0510 ns         1 2NC      -0.569900
      5 CA           7.7680     1.9760    -0.6450 c3         1 2NC      -0.008300
      6 C1           6.8510     1.1800     0.2810 c          1 2NC       0.671100
      7 O1           7.2780     0.5820     1.2560 o          1 2NC      -0.606100
      8 CB           8.0140     1.1730    -1.9410 c3         1 2NC       0.139100
      9 OG1          8.5410    -0.1010    -1.6490 oh         1 2NC      -0.587800
     10 CG2          8.8720     1.9410    -2.9300 c3         1 2NC      -0.125100
     11 N1           5.5630     1.1890    -0.0940 ns         1 2NC      -0.554900
     12 CA1          4.5250     0.4080     0.5270 c3         1 2NC       0.030700
     13 C2           3.7160    -0.2900    -0.5660 c          1 2NC       0.659100
     14 O2           3.7280     0.1070    -1.7230 o          1 2NC      -0.619100
     15 CB1          3.5960     1.2520     1.4300 c3         1 2NC      -0.068700
     16 CG1          2.8090     2.3000     0.6390 c3         1 2NC      -0.073400
     17 CG21         4.3890     1.8680     2.5770 c3         1 2NC      -0.087100
     18 CD1          1.8550     3.1200     1.4970 c3         1 2NC      -0.090100
     19 N2           2.9830    -1.3200    -0.1300 ns         1 2NC      -0.550900
     20 CA2          1.9290    -1.9620    -0.8940 c3         1 2NC       0.110700
     21 C3           0.6940    -2.1450    -0.0120 c3         1 2NC       0.136800
     22 CB2          2.3690    -3.3080    -1.4650 c3         1 2NC      -0.083400
     23 CG           3.4750    -3.2290    -2.5080 c3         1 2NC      -0.074400
     24 CD           3.8770    -4.6010    -3.0340 c3         1 2NC      -0.073400
     25 CE           4.9600    -4.5320    -4.1020 c3         1 2NC      -0.089100
     26 N3           0.3720    -0.9510     0.7400 n7         1 2NC      -0.803200
     27 CA3         -0.8130    -1.0850     1.5530 c3         1 2NC       0.106500
     28 C4          -2.0960    -1.1290     0.7240 c          1 2NC       0.629100
     29 O3          -2.2760    -0.3660    -0.2140 o          1 2NC      -0.624100
     30 CB3         -0.9380     0.0710     2.5510 c3         1 2NC      -0.069400
     31 CG3          0.1610     0.0670     3.6020 c3         1 2NC      -0.073400
     32 CD2          0.0560     1.2320     4.5790 c3         1 2NC      -0.075400
     33 CE1          1.2000     1.2610     5.5820 c3         1 2NC      -0.090100
     34 N4          -3.0150    -2.0290     1.1150 ns         1 2NC      -0.547900
     35 CA4         -4.3620    -2.0070     0.6080 c3         1 2NC       0.030700
     36 C5          -5.1400    -0.8520     1.2360 c          1 2NC       0.655100
     37 O4          -4.9240    -0.4770     2.3760 o          1 2NC      -0.585100
     38 CB4         -5.0770    -3.3230     0.9220 c3         1 2NC      -0.075400
     39 CG4         -4.4490    -4.4950     0.1860 c3         1 2NC      -0.161400
     40 CD3         -5.1480    -5.8120     0.4610 c          1 2NC       0.668100
     41 OE1         -6.2540    -5.8750     0.9780 o          1 2NC      -0.593100
     42 NE2         -4.4600    -6.8990     0.0780 nt         1 2NC      -0.677000
     43 N5          -6.0890    -0.3140     0.4530 ns         1 2NC      -0.556900
     44 CA5         -7.0720     0.5930     0.9810 c3         1 2NC       0.027700
     45 C6          -8.0690    -0.1650     1.8670 c          1 2NC       0.653100
     46 O5          -8.2660    -1.3600     1.7310 o          1 2NC      -0.577100
     47 CB5         -7.8130     1.3050    -0.1520 c3         1 2NC      -0.081400
     48 CG5         -6.8870     2.1540    -1.0140 c3         1 2NC      -0.096400
     49 CD4         -7.6740     2.9220    -2.0620 c3         1 2NC       0.030300
     50 NE          -6.7690     3.7280    -2.8650 nu         1 2NC      -0.406100
     51 CZ          -7.1400     4.4760    -3.8940 cz         1 2NC       0.529300
     52 NH1         -8.4000     4.4770    -4.3070 nv         1 2NC      -0.509200
     53 NH2         -6.2460     5.2450    -4.5050 nv         1 2NC      -0.509200
     54 N6          -8.7110     0.6010     2.7570 nt         1 2NC      -0.669000
     55 H1          10.4900     4.2340     1.8390 hc         1 2NC       0.063700
     56 H2          11.1390     2.6730     1.3310 hc         1 2NC       0.063700
     57 H3          11.5590     4.1490     0.4490 hc         1 2NC       0.063700
     58 H            9.3360     1.5770     0.6880 hn         1 2NC       0.334500
     59 HA           7.2820     2.9170    -0.9150 h1         1 2NC       0.094700
     60 HB           7.0370     0.9890    -2.4000 h1         1 2NC       0.078700
     61 HG1          9.4640     0.0020    -1.3920 ho         1 2NC       0.406000
     62 HG21         9.8710     2.1300    -2.5330 hc         1 2NC       0.049700
     63 HG22         8.9790     1.3740    -3.8560 hc         1 2NC       0.049700
     64 HG23         8.4210     2.9030    -3.1720 hc         1 2NC       0.049700
     65 H4           5.3110     1.6770    -0.9410 hn         1 2NC       0.331500
     66 HA1          5.0050    -0.3470     1.1530 h1         1 2NC       0.093700
     67 HB1          2.8720     0.5520     1.8620 hc         1 2NC       0.053700
     68 HG12         3.5020     2.9740     0.1250 hc         1 2NC       0.042200
     69 HG13         2.2250     1.8080    -0.1420 hc         1 2NC       0.042200
     70 HG24         3.7220     2.3360     3.3020 hc         1 2NC       0.041367
     71 HG25         4.9710     1.1150     3.1090 hc         1 2NC       0.041367
     72 HG26         5.0770     2.6380     2.2230 hc         1 2NC       0.041367
     73 HD11         1.2120     3.7420     0.8740 hc         1 2NC       0.031700
     74 HD12         1.2070     2.4710     2.0890 hc         1 2NC       0.031700
     75 HD13         2.3790     3.7810     2.1870 hc         1 2NC       0.031700
     76 H5           3.0060    -1.5280     0.8570 hn         1 2NC       0.321500
     77 HA2          1.6710    -1.2920    -1.7200 h1         1 2NC       0.074700
     78 HC31        -0.1190    -2.4990    -0.6640 h1         1 2NC       0.038200
     79 HC32         0.8800    -2.9510     0.7060 h1         1 2NC       0.038200
     80 HB2          2.6870    -3.9520    -0.6370 hc         1 2NC       0.040200
     81 HB3          1.4930    -3.7920    -1.9080 hc         1 2NC       0.040200
     82 HG2          3.1460    -2.5980    -3.3400 hc         1 2NC       0.051700
     83 HG3          4.3560    -2.7390    -2.0820 hc         1 2NC       0.051700
     84 HD2          4.2240    -5.2190    -2.2000 hc         1 2NC       0.033200
     85 HD3          2.9970    -5.1090    -3.4410 hc         1 2NC       0.033200
     86 HE1          5.2400    -5.5250    -4.4540 hc         1 2NC       0.034367
     87 HE2          4.6250    -3.9580    -4.9680 hc         1 2NC       0.034367
     88 HE3          5.8630    -4.0510    -3.7210 hc         1 2NC       0.034367
     89 H6           0.2640    -0.1580     0.1160 hn         1 2NC       0.380800
     90 HA3         -0.7220    -2.0160     2.1260 h1         1 2NC       0.066700
     91 HB21        -0.9340     1.0180     2.0000 hc         1 2NC       0.053200
     92 HB31        -1.9140     0.0110     3.0430 hc         1 2NC       0.053200
     93 HG27         0.1260    -0.8750     4.1600 hc         1 2NC       0.045700
     94 HG31         1.1350     0.0870     3.1060 hc         1 2NC       0.045700
     95 HD21         0.0360     2.1740     4.0220 hc         1 2NC       0.036700
     96 HD31        -0.8990     1.1790     5.1100 hc         1 2NC       0.036700
     97 HE11         1.2250     0.3490     6.1800 hc         1 2NC       0.035367
     98 HE21         2.1640     1.3470     5.0740 hc         1 2NC       0.035367
     99 HE31         1.1130     2.1050     6.2670 hc         1 2NC       0.035367
    100 H7          -2.8450    -2.5470     1.9640 hn         1 2NC       0.328500
    101 HA4         -4.3240    -1.8730    -0.4760 h1         1 2NC       0.076700
    102 HB22        -5.0610    -3.4910     2.0020 hc         1 2NC       0.080700
    103 HB32        -6.1260    -3.2220     0.6420 hc         1 2NC       0.080700
    104 HG28        -4.4880    -4.3200    -0.8940 hc         1 2NC       0.057700
    105 HG32        -3.3890    -4.5910     0.4330 hc         1 2NC       0.057700
    106 HE22        -3.5610    -6.8300    -0.3660 hn         1 2NC       0.316500
    107 HE23        -4.8660    -7.8160     0.1620 hn         1 2NC       0.316500
    108 H8          -6.2770    -0.7420    -0.4410 hn         1 2NC       0.318500
    109 HA5         -6.5600     1.3450     1.5870 h1         1 2NC       0.085700
    110 HB23        -8.3350     0.5680    -0.7690 hc         1 2NC       0.060200
    111 HB33        -8.5820     1.9420     0.2890 hc         1 2NC       0.060200
    112 HG29        -6.3400     2.8560    -0.3790 hc         1 2NC       0.069700
    113 HG33        -6.1450     1.5250    -1.5120 hc         1 2NC       0.069700
    114 HD22        -8.2090     2.2160    -2.7020 h1         1 2NC       0.066200
    115 HD32        -8.4160     3.5630    -1.5770 h1         1 2NC       0.066200
    116 HE          -5.8040     3.7780    -2.5780 hn         1 2NC       0.325700
    117 HH11        -9.0880     3.8550    -3.9170 hn         1 2NC       0.329200
    118 HH12        -8.6810     5.0170    -5.1070 hn         1 2NC       0.329200
    119 HH21        -5.2820     5.2490    -4.2190 hn         1 2NC       0.329200
    120 HH22        -6.4760     5.7420    -5.3480 hn         1 2NC       0.329200
    121 HN1         -8.4970     1.5770     2.8750 hn         1 2NC       0.320500
    122 HN2         -9.4230     0.2100     3.3530 hn         1 2NC       0.320500
@<TRIPOS>BOND
     1     1     2 2   
     2     1     3 1   
     3     1     4 1   
     4     3    55 1   
     5     3    56 1   
     6     3    57 1   
     7     4     5 1   
     8     4    58 1   
     9     5     6 1   
    10     5     8 1   
    11     5    59 1   
    12     6     7 2   
    13     6    11 1   
    14     8     9 1   
    15     8    10 1   
    16     8    60 1   
    17     9    61 1   
    18    10    62 1   
    19    10    63 1   
    20    10    64 1   
    21    11    12 1   
    22    11    65 1   
    23    12    13 1   
    24    12    15 1   
    25    12    66 1   
    26    13    14 2   
    27    13    19 1   
    28    15    16 1   
    29    15    17 1   
    30    15    67 1   
    31    16    18 1   
    32    16    68 1   
    33    16    69 1   
    34    17    70 1   
    35    17    71 1   
    36    17    72 1   
    37    18    73 1   
    38    18    74 1   
    39    18    75 1   
    40    19    20 1   
    41    19    76 1   
    42    20    21 1   
    43    20    22 1   
    44    20    77 1   
    45    21    26 1   
    46    21    78 1   
    47    21    79 1   
    48    22    23 1   
    49    22    80 1   
    50    22    81 1   
    51    23    24 1   
    52    23    82 1   
    53    23    83 1   
    54    24    25 1   
    55    24    84 1   
    56    24    85 1   
    57    25    86 1   
    58    25    87 1   
    59    25    88 1   
    60    26    27 1   
    61    26    89 1   
    62    27    28 1   
    63    27    30 1   
    64    27    90 1   
    65    28    29 2   
    66    28    34 1   
    67    30    31 1   
    68    30    91 1   
    69    30    92 1   
    70    31    32 1   
    71    31    93 1   
    72    31    94 1   
    73    32    33 1   
    74    32    95 1   
    75    32    96 1   
    76    33    97 1   
    77    33    98 1   
    78    33    99 1   
    79    34    35 1   
    80    34   100 1   
    81    35    36 1   
    82    35    38 1   
    83    35   101 1   
    84    36    37 2   
    85    36    43 1   
    86    38    39 1   
    87    38   102 1   
    88    38   103 1   
    89    39    40 1   
    90    39   104 1   
    91    39   105 1   
    92    40    41 2   
    93    40    42 1   
    94    42   106 1   
    95    42   107 1   
    96    43    44 1   
    97    43   108 1   
    98    44    45 1   
    99    44    47 1   
   100    44   109 1   
   101    45    46 2   
   102    45    54 1   
   103    47    48 1   
   104    47   110 1   
   105    47   111 1   
   106    48    49 1   
   107    48   112 1   
   108    48   113 1   
   109    49    50 1   
   110    49   114 1   
   111    49   115 1   
   112    50    51 2   
   113    50   116 1   
   114    51    52 1   
   115    51    53 1   
   116    52   117 1   
   117    52   118 1   
   118    53   119 1   
   119    53   120 1   
   120    54   121 1   
   121    54   122 1   
@<TRIPOS>SUBSTRUCTURE
     1 2NC         1 TEMP              0 ****  ****    0 ROOT
