@<TRIPOS>MOLECULE
2ND
   30    32     1     0     0
SMALL
bcc


@<TRIPOS>ATOM
      1 O6          -4.2920     1.4900    -0.8940 o          1 2ND      -0.583500
      2 C6          -3.5230     0.6740    -0.4180 c          1 2ND       0.645000
      3 N1          -3.9660    -0.5800     0.0160 ns         1 2ND      -0.499400
      4 C2          -3.1960    -1.5510     0.5590 cc         1 2ND       0.506800
      5 N3          -1.9220    -1.4570     0.7540 nd         1 2ND      -0.621100
      6 C4          -1.4250    -0.2670     0.3560 cd         1 2ND       0.057800
      7 C5          -2.1130     0.7920    -0.2060 cc         1 2ND       0.200800
      8 N7          -1.2640     1.8250    -0.4700 nc         1 2ND      -0.609000
      9 C8          -0.0950     1.4000    -0.0800 cd         1 2ND       0.418400
     10 N9          -0.1300     0.1340     0.4300 na         1 2ND      -0.208900
     11 C1           0.9750    -0.6830     0.9470 c5         1 2ND       0.269800
     12 O4           2.0840     0.1400     1.1390 os         1 2ND      -0.387600
     13 C7           1.3970    -1.7630    -0.0380 c5         1 2ND      -0.161400
     14 C3           2.4750    -1.0500    -0.8490 c5         1 2ND       0.113100
     15 O3           3.4290    -1.8830    -1.4440 oh         1 2ND      -0.579800
     16 C9           3.1350    -0.1930     0.2280 c5         1 2ND       0.133100
     17 C10          3.7850     1.0590    -0.3050 c3         1 2ND       0.141400
     18 O5           4.3910     1.7490     0.7600 oh         1 2ND      -0.582800
     19 HN1         -4.9540    -0.7740    -0.0880 hn         1 2ND       0.329500
     20 H2          -3.7190    -2.4570     0.8360 h5         1 2ND       0.049800
     21 H8           0.8160     1.9760    -0.1290 h5         1 2ND       0.070100
     22 H1           0.6360    -1.0940     1.9000 h2         1 2ND       0.107700
     23 H2'1         1.8450    -2.5930     0.5120 hc         1 2ND       0.083700
     24 H2'2         0.5700    -2.1530    -0.6300 hc         1 2ND       0.083700
     25 H3           2.0020    -0.3980    -1.5980 h1         1 2ND       0.048700
     26 H6           3.0400    -2.2790    -2.2290 ho         1 2ND       0.416000
     27 H4           3.8840    -0.7990     0.7540 h1         1 2ND       0.088700
     28 H5'1         3.0310     1.6710    -0.8170 h1         1 2ND       0.029200
     29 H5'2         4.5160     0.7550    -1.0650 h1         1 2ND       0.029200
     30 H5           4.7960     2.5470     0.4100 ho         1 2ND       0.409000
@<TRIPOS>BOND
     1     1     2 2   
     2     2     3 1   
     3     2     7 1   
     4     3     4 1   
     5     3    19 1   
     6     4     5 2   
     7     4    20 1   
     8     5     6 1   
     9     6     7 2   
    10     6    10 1   
    11     7     8 1   
    12     8     9 2   
    13     9    10 1   
    14     9    21 1   
    15    10    11 1   
    16    11    12 1   
    17    11    13 1   
    18    11    22 1   
    19    12    16 1   
    20    13    14 1   
    21    13    23 1   
    22    13    24 1   
    23    14    15 1   
    24    14    16 1   
    25    14    25 1   
    26    15    26 1   
    27    16    17 1   
    28    16    27 1   
    29    17    18 1   
    30    17    28 1   
    31    17    29 1   
    32    18    30 1   
@<TRIPOS>SUBSTRUCTURE
     1 2ND         1 TEMP              0 ****  ****    0 ROOT
