@<TRIPOS>MOLECULE
2ND
   30    32     1     0     0
SMALL
No Charge or Current Charge


@<TRIPOS>ATOM
      1 O6          -4.6670     1.2630    -0.7740 o          1 2ND      -0.508000
      2 C6          -3.8630     0.4930    -0.2650 c          1 2ND       0.502500
      3 N1          -4.2590    -0.6300     0.3990 ns         1 2ND      -0.432400
      4 C2          -3.4050    -1.5340     0.9920 cc         1 2ND       0.506800
      5 N3          -2.0690    -1.4300     0.9960 nd         1 2ND      -0.621100
      6 C4          -1.5920    -0.2990     0.3330 cd         1 2ND       0.072400
      7 C5          -2.3880     0.6340    -0.2760 cc         1 2ND       0.135500
      8 N7          -1.6220     1.6270    -0.8430 nc         1 2ND      -0.609000
      9 C8          -0.3580     1.2930    -0.5760 cd         1 2ND       0.418400
     10 N9          -0.2920     0.1070     0.1490 na         1 2ND      -0.187500
     11 C1           0.9120    -0.5760     0.6120 c5         1 2ND       0.322300
     12 O4           1.9610     0.4030     0.8100 os         1 2ND      -0.434000
     13 C7           1.4950    -1.6250    -0.3850 c5         1 2ND      -0.161400
     14 C3           2.6870    -0.8630    -1.0100 c5         1 2ND       0.136300
     15 O3           3.6510    -1.7560    -1.5730 oh         1 2ND      -0.702000
     16 C9           3.1890    -0.1270     0.2610 c5         1 2ND       0.156300
     17 C10          4.2140     1.0110    -0.0040 c3         1 2ND       0.164600
     18 O5           4.7390     1.5450     1.2260 oh         1 2ND      -0.705000
     19 HN1         -5.2540    -0.7960     0.4500 hn         1 2ND       0.329500
     20 H2          -3.9290    -2.3560     1.4650 h5         1 2ND       0.049800
     21 H8           0.5300     1.8410    -0.8700 h5         1 2ND       0.070100
     22 H1           0.6490    -1.0530     1.5650 h2         1 2ND       0.107700
     23 H2'1         1.8240    -2.5190     0.1560 hc         1 2ND       0.083700
     24 H2'2         0.7620    -1.9500    -1.1310 hc         1 2ND       0.083700
     25 H3           2.3430    -0.1370    -1.7610 h1         1 2ND       0.048700
     26 H6           3.2320    -2.1800    -2.3590 ho         1 2ND       0.515000
     27 H4           3.6250    -0.8400     0.9750 h1         1 2ND       0.088700
     28 H5'1         3.7230     1.8000    -0.5900 h1         1 2ND       0.029200
     29 H5'2         5.0320     0.6060    -0.6140 h1         1 2ND       0.029200
     30 H5           5.3400     2.2890     0.9840 ho         1 2ND       0.508000
@<TRIPOS>BOND
     1     1     2 2   
     2     2     3 1   
     3     2     7 1   
     4     3     4 1   
     5     3    19 1   
     6     4     5 2   
     7     4    20 1   
     8     5     6 1   
     9     6     7 2   
    10     6    10 1   
    11     7     8 1   
    12     8     9 2   
    13     9    10 1   
    14     9    21 1   
    15    10    11 1   
    16    11    12 1   
    17    11    13 1   
    18    11    22 1   
    19    12    16 1   
    20    13    14 1   
    21    13    23 1   
    22    13    24 1   
    23    14    15 1   
    24    14    16 1   
    25    14    25 1   
    26    15    26 1   
    27    16    17 1   
    28    16    27 1   
    29    17    18 1   
    30    17    28 1   
    31    17    29 1   
    32    18    30 1   
@<TRIPOS>SUBSTRUCTURE
     1 2ND         1 TEMP              0 ****  ****    0 ROOT
