@<TRIPOS>MOLECULE
2NF
   69    73     1     0     0
SMALL
No Charge or Current Charge


@<TRIPOS>ATOM
      1 O7N         -4.3270    -4.1130    -0.0160 o          1 2NF      -0.599100
      2 C7N         -4.0060    -3.4270     0.9400 c          1 2NF       0.629700
      3 N7N         -4.5200    -3.7140     2.1540 nt         1 2NF      -0.591000
      4 C3N         -3.0580    -2.2590     0.8150 ca         1 2NF      -0.195600
      5 C4N         -2.7280    -1.4360     1.9120 ca         1 2NF      -0.014000
      6 C5N         -1.8210    -0.3840     1.7320 ca         1 2NF      -0.108000
      7 C6N         -1.2530    -0.1410     0.4700 ca         1 2NF       0.083700
      8 C2N         -2.4670    -1.9810    -0.4390 ca         1 2NF      -0.050000
      9 N1N         -1.5790    -0.9150    -0.6570 na         1 2NF       0.018300
     10 C1D         -1.0360    -0.6520    -2.0030 c5         1 2NF       0.250300
     11 C2D         -2.0800    -0.2710    -3.0910 c5         1 2NF       0.107300
     12 F2D         -2.6960    -1.4000    -3.6420 f          1 2NF      -0.219000
     13 C3D         -1.1680     0.4500    -4.1210 c5         1 2NF       0.109300
     14 O3D         -0.3630    -0.4600    -4.8900 oh         1 2NF      -0.669000
     15 O4D         -0.0760     0.4400    -1.9990 os         1 2NF      -0.369000
     16 C4D         -0.3160     1.3130    -3.1390 c5         1 2NF       0.134300
     17 C5D         -1.0260     2.6140    -2.6710 c3         1 2NF       0.238600
     18 O5D         -0.0310     3.4990    -2.1470 os         1 2NF      -0.563400
     19 PN          -0.3700     4.3980    -0.8570 p5         1 2NF       1.435800
     20 O1N          0.7300     5.3870    -0.6640 o          1 2NF      -0.816000
     21 O2N         -1.7100     5.0320    -1.0230 o          1 2NF      -0.816000
     22 O3          -0.3170     3.2240     0.1910 os         1 2NF      -0.735800
     23 PA          -0.9120     3.6460     1.5870 p5         1 2NF       1.443800
     24 O1A         -2.3880     3.4430     1.6430 o          1 2NF      -0.823500
     25 O2A         -0.4830     4.9760     2.1060 o          1 2NF      -0.823500
     26 O5B         -0.1920     2.4790     2.4270 os         1 2NF      -0.605400
     27 C5B          1.2260     2.5630     2.6430 c3         1 2NF       0.213600
     28 C4B          1.7560     1.2020     3.1820 c5         1 2NF       0.147300
     29 O4B          1.2470     0.1020     2.3700 os         1 2NF      -0.467000
     30 C1B          2.3520    -0.7290     1.9780 c5         1 2NF       0.322300
     31 C2B          3.5130     0.3030     1.8100 c5         1 2NF       0.081300
     32 O2B          4.8280    -0.2850     1.7060 oh         1 2NF      -0.705000
     33 C3B          3.3240     1.0820     3.1430 c5         1 2NF       0.099300
     34 O3B          3.8560     0.3240     4.2410 oh         1 2NF      -0.726000
     35 N9A          1.9610    -1.5390     0.8250 na         1 2NF      -0.300300
     36 C8A          2.4280    -1.3930    -0.4870 cc         1 2NF       0.458700
     37 N7A          1.8870    -2.3190    -1.3040 nd         1 2NF      -0.525100
     38 C5A          1.0660    -3.0600    -0.4530 ca         1 2NF      -0.070600
     39 C6A          0.2370    -4.1630    -0.7440 ca         1 2NF       0.436900
     40 N6A          0.1100    -4.6780    -1.9960 nv         1 2NF      -1.061900
     41 C4A          1.1080    -2.6050     0.8400 ca         1 2NF       0.102500
     42 N3A          0.4000    -3.1850     1.8290 nb         1 2NF      -0.253000
     43 C2A         -0.3630    -4.2420     1.4630 ca         1 2NF       0.160900
     44 N1A         -0.4830    -4.7630     0.2170 nb         1 2NF      -0.312000
     45 HN7N        -5.1560    -4.4920     2.2430 hn         1 2NF       0.324000
     46 HN7A        -4.2700    -3.1640     2.9600 hn         1 2NF       0.324000
     47 H4N         -3.1480    -1.6030     2.9010 ha         1 2NF       0.138000
     48 H5N         -1.5400     0.2410     2.5770 ha         1 2NF       0.206000
     49 H6N         -0.5220     0.6610     0.3500 h4         1 2NF       0.272000
     50 H2N         -2.6870    -2.6150    -1.3010 h4         1 2NF       0.179000
     51 H1D         -0.5210    -1.5710    -2.3080 h2         1 2NF       0.143700
     52 H2D         -2.8620     0.3910    -2.6940 h1         1 2NF       0.068700
     53 H3D         -1.7590     1.0860    -4.7960 h1         1 2NF       0.046700
     54 HO3D        -0.9770    -1.0030    -5.4380 ho         1 2NF       0.508000
     55 H4D          0.6430     1.5910    -3.5950 h1         1 2NF       0.113700
     56 H5D         -1.5220     3.0840    -3.5300 h1         1 2NF       0.026200
     57 H5DA        -1.7940     2.3700    -1.9240 h1         1 2NF       0.026200
     58 H5B          1.7490     2.8000     1.7070 h1         1 2NF       0.035700
     59 H5BA         1.4620     3.3490     3.3710 h1         1 2NF       0.035700
     60 H4B          1.3830     1.0790     4.2080 h1         1 2NF       0.061700
     61 H1B          2.5860    -1.4360     2.7840 h2         1 2NF       0.086700
     62 H2B          3.3090     0.9610     0.9510 h1         1 2NF       0.088700
     63 HO2B         5.4430     0.4060     1.3610 ho         1 2NF       0.510000
     64 H3B          3.8010     2.0720     3.0990 h1         1 2NF       0.059700
     65 HO3B         4.5980    -0.1980     3.8460 ho         1 2NF       0.515000
     66 H8A          3.1340    -0.6230    -0.7790 h5         1 2NF       0.138800
     67 HN6A         0.8200    -4.4090    -2.6730 hn         1 2NF       0.502000
     68 HN6B        -0.2690    -5.6150    -2.0890 hn         1 2NF       0.502000
     69 H2A         -0.9450    -4.7200     2.2490 h5         1 2NF       0.029100
@<TRIPOS>BOND
     1     1     2 2   
     2     2     3 1   
     3     2     4 1   
     4     3    45 1   
     5     3    46 1   
     6     4     5 ar  
     7     4     8 ar  
     8     5     6 ar  
     9     5    47 1   
    10     6     7 ar  
    11     6    48 1   
    12     7     9 2   
    13     7    49 1   
    14     8     9 1   
    15     8    50 1   
    16     9    10 1   
    17    10    11 1   
    18    10    15 1   
    19    10    51 1   
    20    11    12 1   
    21    11    13 1   
    22    11    52 1   
    23    13    14 1   
    24    13    16 1   
    25    13    53 1   
    26    14    54 1   
    27    15    16 1   
    28    16    17 1   
    29    16    55 1   
    30    17    18 1   
    31    17    56 1   
    32    17    57 1   
    33    18    19 1   
    34    19    20 1   
    35    19    21 1   
    36    19    22 1   
    37    22    23 1   
    38    23    24 1   
    39    23    25 1   
    40    23    26 1   
    41    26    27 1   
    42    27    28 1   
    43    27    58 1   
    44    27    59 1   
    45    28    29 1   
    46    28    33 1   
    47    28    60 1   
    48    29    30 1   
    49    30    31 1   
    50    30    35 1   
    51    30    61 1   
    52    31    32 1   
    53    31    33 1   
    54    31    62 1   
    55    32    63 1   
    56    33    34 1   
    57    33    64 1   
    58    34    65 1   
    59    35    36 1   
    60    35    41 1   
    61    36    37 2   
    62    36    66 1   
    63    37    38 1   
    64    38    39 ar  
    65    38    41 ar  
    66    39    40 1   
    67    39    44 ar  
    68    40    67 1   
    69    40    68 1   
    70    41    42 ar  
    71    42    43 ar  
    72    43    44 ar  
    73    43    69 1   
@<TRIPOS>SUBSTRUCTURE
     1 2NF         1 TEMP              0 ****  ****    0 ROOT
