@<TRIPOS>MOLECULE
2NF
   69    73     1     0     0
SMALL
bcc


@<TRIPOS>ATOM
      1 O7N         -4.6760    -3.4050     2.2720 o          1 2NF      -0.599100
      2 C7N         -4.4210    -2.3450     2.8200 c          1 2NF       0.696700
      3 N7N         -4.8530    -2.0020     4.0350 nt         1 2NF      -0.658000
      4 C3N         -3.5740    -1.3270     2.1110 ca         1 2NF      -0.195600
      5 C4N         -3.5550     0.0340     2.4050 ca         1 2NF      -0.032000
      6 C5N         -2.7430     0.8770     1.6700 ca         1 2NF      -0.126000
      7 C6N         -1.9720     0.3660     0.6500 ca         1 2NF       0.065700
      8 C2N         -2.7950    -1.7800     1.0700 ca         1 2NF      -0.017300
      9 N1N         -2.0330    -0.9400     0.3600 na         1 2NF      -0.003100
     10 C1D         -1.1380    -1.5250    -0.7070 c5         1 2NF       0.197800
     11 C2D         -1.9400    -2.2910    -1.7590 c5         1 2NF       0.088600
     12 F2D         -1.0800    -3.2160    -2.3180 f          1 2NF      -0.200300
     13 C3D         -2.2460    -1.1980    -2.7750 c5         1 2NF       0.086100
     14 O3D         -2.4410    -1.6400    -4.0780 oh         1 2NF      -0.546800
     15 O4D         -0.4800    -0.5250    -1.3690 os         1 2NF      -0.322600
     16 C4D         -1.0060    -0.3060    -2.6850 c5         1 2NF       0.111100
     17 C5D         -1.3570     1.1470    -2.9010 c3         1 2NF       0.215400
     18 O5D         -0.2180     1.9640    -2.8190 os         1 2NF      -0.540200
     19 PN          -0.2720     3.3760    -1.9800 p5         1 2NF       1.435800
     20 O1N          0.9150     4.1680    -2.4160 o          1 2NF      -0.816000
     21 O2N         -1.6590     3.9330    -2.0500 o          1 2NF      -0.816000
     22 O3          -0.0180     2.7710    -0.4670 os         1 2NF      -0.735800
     23 PA           0.6680     3.6510     0.7360 p5         1 2NF       1.443800
     24 O1A         -0.0040     4.9850     0.8090 o          1 2NF      -0.823500
     25 O2A          2.1630     3.5490     0.6660 o          1 2NF      -0.823500
     26 O5B          0.1180     2.7490     2.0010 os         1 2NF      -0.582200
     27 C5B          1.0020     2.0970     2.8810 c3         1 2NF       0.190400
     28 C4B          0.7230     0.6040     2.9520 c5         1 2NF       0.124100
     29 O4B          0.6950     0.0210     1.6500 os         1 2NF      -0.420600
     30 C1B          1.7970    -0.8210     1.4550 c5         1 2NF       0.269800
     31 C2B          2.7930    -0.4480     2.5500 c5         1 2NF       0.058100
     32 O2B          3.6580    -1.5160     2.7930 oh         1 2NF      -0.582800
     33 C3B          1.8380    -0.1140     3.7030 c5         1 2NF       0.076100
     34 O3B          1.3230    -1.2830     4.2850 oh         1 2NF      -0.603800
     35 N9A          2.2820    -0.6740     0.1110 na         1 2NF      -0.271000
     36 C8A          2.6450     0.4840    -0.5300 cc         1 2NF       0.458700
     37 N7A          2.9330     0.3040    -1.7840 nd         1 2NF      -0.525100
     38 C5A          2.7290    -1.0350    -1.9970 ca         1 2NF      -0.201200
     39 C6A          2.8090    -1.8450    -3.1410 ca         1 2NF       0.765200
     40 N6A          3.1960    -1.3760    -4.3330 nv         1 2NF      -0.951500
     41 C4A          2.3150    -1.6600    -0.8330 ca         1 2NF       0.430800
     42 N3A          2.0000    -2.9450    -0.6940 nb         1 2NF      -0.779000
     43 C2A          2.1130    -3.6040    -1.8350 ca         1 2NF       0.686900
     44 N1A          2.4940    -3.1400    -3.0210 nb         1 2NF      -0.838000
     45 HN7N        -5.4230    -2.6470     4.5590 hn         1 2NF       0.324000
     46 HN7A        -4.5280    -1.1870     4.5250 hn         1 2NF       0.324000
     47 H4N         -4.1660     0.4470     3.1960 ha         1 2NF       0.156000
     48 H5N         -2.6880     1.9330     1.8860 ha         1 2NF       0.224000
     49 H6N         -1.2940     0.9820     0.0820 h4         1 2NF       0.290000
     50 H2N         -2.7590    -2.8270     0.8060 h4         1 2NF       0.197000
     51 H1D         -0.4410    -2.1760    -0.1720 h2         1 2NF       0.143700
     52 H2D         -2.8200    -2.8200    -1.3910 h1         1 2NF       0.068700
     53 H3D         -3.1180    -0.6440    -2.3970 h1         1 2NF       0.046700
     54 HO3D        -3.3560    -1.9180    -4.1810 ho         1 2NF       0.409000
     55 H4D         -0.2470    -0.6280    -3.4050 h1         1 2NF       0.113700
     56 H5D         -1.8070     1.2260    -3.8980 h1         1 2NF       0.026200
     57 H5DA        -2.1350     1.4450    -2.1900 h1         1 2NF       0.026200
     58 H5B          2.0410     2.2730     2.5910 h1         1 2NF       0.035700
     59 H5BA         0.8740     2.5030     3.8900 h1         1 2NF       0.035700
     60 H4B         -0.2480     0.4290     3.4250 h1         1 2NF       0.061700
     61 H1B          1.5200    -1.8770     1.5600 h2         1 2NF       0.086700
     62 H2B          3.3380     0.4590     2.2610 h1         1 2NF       0.088700
     63 HO2B         4.4360    -1.1870     3.2540 ho         1 2NF       0.411000
     64 H3B          2.3110     0.5360     4.4510 h1         1 2NF       0.059700
     65 HO3B         2.0640    -1.8720     4.4720 ho         1 2NF       0.416000
     66 H8A          2.6640     1.4400    -0.0240 h5         1 2NF       0.138800
     67 HN6A         3.3070    -0.3880    -4.4770 hn         1 2NF       0.446800
     68 HN6B         3.1040    -1.9570    -5.1490 hn         1 2NF       0.446800
     69 H2A          1.8640    -4.6600    -1.8040 h5         1 2NF       0.029100
@<TRIPOS>BOND
     1     1     2 2   
     2     2     3 1   
     3     2     4 1   
     4     3    45 1   
     5     3    46 1   
     6     4     5 ar  
     7     4     8 ar  
     8     5     6 ar  
     9     5    47 1   
    10     6     7 ar  
    11     6    48 1   
    12     7     9 2   
    13     7    49 1   
    14     8     9 1   
    15     8    50 1   
    16     9    10 1   
    17    10    11 1   
    18    10    15 1   
    19    10    51 1   
    20    11    12 1   
    21    11    13 1   
    22    11    52 1   
    23    13    14 1   
    24    13    16 1   
    25    13    53 1   
    26    14    54 1   
    27    15    16 1   
    28    16    17 1   
    29    16    55 1   
    30    17    18 1   
    31    17    56 1   
    32    17    57 1   
    33    18    19 1   
    34    19    20 1   
    35    19    21 1   
    36    19    22 1   
    37    22    23 1   
    38    23    24 1   
    39    23    25 1   
    40    23    26 1   
    41    26    27 1   
    42    27    28 1   
    43    27    58 1   
    44    27    59 1   
    45    28    29 1   
    46    28    33 1   
    47    28    60 1   
    48    29    30 1   
    49    30    31 1   
    50    30    35 1   
    51    30    61 1   
    52    31    32 1   
    53    31    33 1   
    54    31    62 1   
    55    32    63 1   
    56    33    34 1   
    57    33    64 1   
    58    34    65 1   
    59    35    36 1   
    60    35    41 1   
    61    36    37 2   
    62    36    66 1   
    63    37    38 1   
    64    38    39 ar  
    65    38    41 ar  
    66    39    40 1   
    67    39    44 ar  
    68    40    67 1   
    69    40    68 1   
    70    41    42 ar  
    71    42    43 ar  
    72    43    44 ar  
    73    43    69 1   
@<TRIPOS>SUBSTRUCTURE
     1 2NF         1 TEMP              0 ****  ****    0 ROOT
