@<TRIPOS>MOLECULE
2NG
   57    60     1     0     0
SMALL
abcg2


@<TRIPOS>ATOM
      1 OAI          2.4570    -3.2440     0.4960 o          1 2NG      -0.699867
      2 SBN          2.4870    -2.3470     1.6800 s6         1 2NG       1.256100
      3 OAF          1.2700    -1.5460     1.8650 o          1 2NG      -0.699867
      4 OAG          2.8900    -3.0720     2.8930 o          1 2NG      -0.699867
      5 CBI          3.8220    -1.1690     1.3370 ca         1 2NG      -0.220500
      6 CBK          3.9020    -0.2930     0.1990 ca         1 2NG       0.024000
      7 CAR          4.8050    -1.1570     2.2920 ca         1 2NG      -0.056000
      8 CAM          5.9120    -0.3060     2.1930 ca         1 2NG      -0.152000
      9 CAU          6.0260     0.5440     1.1370 ca         1 2NG      -0.058000
     10 CBJ          5.0380     0.5870     0.1210 ca         1 2NG       0.026000
     11 CBH          5.1640     1.5030    -0.9630 ca         1 2NG      -0.214500
     12 SBM          6.5380     2.6650    -1.0890 s6         1 2NG       1.268100
     13 OAH          7.7520     1.8350    -1.1690 o          1 2NG      -0.705200
     14 OAE          6.2850     3.4350    -2.3170 o          1 2NG      -0.705200
     15 OAD          6.4650     3.4860     0.1320 o          1 2NG      -0.705200
     16 CAT          4.2250     1.5310    -1.9530 ca         1 2NG      -0.047000
     17 CAS          3.1350     0.6600    -1.9060 ca         1 2NG      -0.131000
     18 CBF          2.9510    -0.2200    -0.8710 ca         1 2NG      -0.023000
     19 NAY          1.7990    -1.0200    -0.9350 ns         1 2NG      -0.166000
     20 CBA          0.5570    -0.4800    -0.8760 c          1 2NG       0.630700
     21 OAC          0.3610     0.7230    -0.8100 o          1 2NG      -0.606100
     22 CBD         -0.5910    -1.4370    -0.9390 ca         1 2NG      -0.084600
     23 CAV         -1.8670    -0.8980    -0.8100 ca         1 2NG      -0.054000
     24 CAQ         -0.4620    -2.8050    -1.1620 ca         1 2NG      -0.059000
     25 CAO         -1.5900    -3.6040    -1.2380 ca         1 2NG      -0.114000
     26 CBB         -2.8710    -3.0830    -1.0900 ca         1 2NG      -0.111300
     27 CAA         -4.0770    -3.9680    -1.1600 c3         1 2NG      -0.036800
     28 CBE         -2.9920    -1.7050    -0.8810 ca         1 2NG      -0.077000
     29 NAX         -4.2800    -1.1420    -0.7910 ns         1 2NG      -0.149000
     30 CAZ         -4.6750    -0.2610     0.1580 c          1 2NG       0.602700
     31 OAB         -3.9720     0.0910     1.0870 o          1 2NG      -0.535100
     32 CBC         -6.0650     0.2680    -0.0030 ca         1 2NG      -0.148600
     33 CAW         -6.7230     0.7100     1.1380 ca         1 2NG       0.003000
     34 CAN         -6.6860     0.3850    -1.2440 ca         1 2NG      -0.047000
     35 CAL         -7.9590     0.9260    -1.3460 ca         1 2NG      -0.136000
     36 CAP         -8.6300     1.3530    -0.2140 ca         1 2NG      -0.044000
     37 CBG         -7.9970     1.2350     1.0150 ca         1 2NG      -0.190200
     38 NBL         -8.6910     1.6870     2.2150 no         1 2NG       0.696200
     39 OAK         -9.7880     2.1730     2.0830 o          1 2NG      -0.403000
     40 OAJ         -8.1330     1.5530     3.2780 o          1 2NG      -0.403000
     41 H1           4.7350    -1.8180     3.1430 ha         1 2NG       0.127000
     42 H2           6.6740    -0.3290     2.9600 ha         1 2NG       0.087000
     43 H3           6.8890     1.1860     1.0870 ha         1 2NG       0.133000
     44 H4           4.3170     2.2140    -2.7840 ha         1 2NG       0.128000
     45 H5           2.4200     0.6730    -2.7170 ha         1 2NG       0.094000
     46 H6           1.9200    -2.0080    -0.7250 hn         1 2NG       0.201000
     47 H7          -1.9780     0.1690    -0.6770 ha         1 2NG       0.150000
     48 H8           0.5020    -3.2730    -1.2940 ha         1 2NG       0.153000
     49 H9          -1.4730    -4.6680    -1.4080 ha         1 2NG       0.104000
     50 H10         -4.7160    -3.8450    -0.2840 hc         1 2NG       0.029033
     51 H11         -4.6930    -3.7510    -2.0370 hc         1 2NG       0.029033
     52 H12         -3.7870    -5.0140    -1.2210 hc         1 2NG       0.029033
     53 H13         -4.9790    -1.5160    -1.4140 hn         1 2NG       0.139000
     54 H14         -6.2400     0.6330     2.1020 ha         1 2NG       0.178000
     55 H15         -6.1770     0.0830    -2.1500 ha         1 2NG       0.129000
     56 H16         -8.4280     1.0230    -2.3140 ha         1 2NG       0.123000
     57 H17         -9.6220     1.7740    -0.2980 ha         1 2NG       0.144000
@<TRIPOS>BOND
     1     1     2 1   
     2     2     3 1   
     3     2     4 1   
     4     2     5 1   
     5     5     6 ar  
     6     5     7 ar  
     7     6    10 ar  
     8     6    18 ar  
     9     7     8 ar  
    10     7    41 1   
    11     8     9 ar  
    12     8    42 1   
    13     9    10 ar  
    14     9    43 1   
    15    10    11 ar  
    16    11    12 1   
    17    11    16 ar  
    18    12    13 1   
    19    12    14 1   
    20    12    15 1   
    21    16    17 ar  
    22    16    44 1   
    23    17    18 ar  
    24    17    45 1   
    25    18    19 1   
    26    19    20 1   
    27    19    46 1   
    28    20    21 2   
    29    20    22 1   
    30    22    23 ar  
    31    22    24 ar  
    32    23    28 ar  
    33    23    47 1   
    34    24    25 ar  
    35    24    48 1   
    36    25    26 ar  
    37    25    49 1   
    38    26    27 1   
    39    26    28 ar  
    40    27    50 1   
    41    27    51 1   
    42    27    52 1   
    43    28    29 1   
    44    29    30 1   
    45    29    53 1   
    46    30    31 2   
    47    30    32 1   
    48    32    33 ar  
    49    32    34 ar  
    50    33    37 ar  
    51    33    54 1   
    52    34    35 ar  
    53    34    55 1   
    54    35    36 ar  
    55    35    56 1   
    56    36    37 ar  
    57    36    57 1   
    58    37    38 1   
    59    38    39 1   
    60    38    40 1   
@<TRIPOS>SUBSTRUCTURE
     1 2NG         1 TEMP              0 ****  ****    0 ROOT
