@<TRIPOS>MOLECULE
2NG
   57    60     1     0     0
SMALL
No Charge or Current Charge


@<TRIPOS>ATOM
      1 OAI          2.3260    -3.1180     0.3570 o          1 2NG      -0.699867
      2 SBN          2.6190    -2.5020     1.6580 s6         1 2NG       1.256100
      3 OAF          1.6550    -1.4920     2.1160 o          1 2NG      -0.699867
      4 OAG          3.1030    -3.4240     2.6960 o          1 2NG      -0.699867
      5 CBI          4.1240    -1.4480     1.2420 ca         1 2NG      -0.220500
      6 CBK          4.1730    -0.3480     0.2900 ca         1 2NG       0.024000
      7 CAR          5.3000    -1.7830     1.9560 ca         1 2NG      -0.056000
      8 CAM          6.4870    -1.0830     1.7850 ca         1 2NG      -0.152000
      9 CAU          6.5440    -0.0160     0.8980 ca         1 2NG      -0.058000
     10 CBJ          5.4140     0.3780     0.1430 ca         1 2NG       0.026000
     11 CBH          5.5290     1.4900    -0.7550 ca         1 2NG      -0.214500
     12 SBM          7.1040     2.4830    -0.9890 s6         1 2NG       1.268100
     13 OAH          8.0410     1.4540    -1.4650 o          1 2NG      -0.705200
     14 OAE          6.7240     3.5020    -1.9790 o          1 2NG      -0.705200
     15 OAD          7.3520     2.9830     0.3730 o          1 2NG      -0.705200
     16 CAT          4.4070     1.8650    -1.5110 ca         1 2NG      -0.047000
     17 CAS          3.2090     1.1740    -1.3970 ca         1 2NG      -0.131000
     18 CBF          3.0620     0.0890    -0.5170 ca         1 2NG      -0.023000
     19 NAY          1.7940    -0.5440    -0.5550 ns         1 2NG      -0.166000
     20 CBA          0.5180     0.0020    -0.6060 c          1 2NG       0.630700
     21 OAC          0.3170     1.2100    -0.5030 o          1 2NG      -0.606100
     22 CBD         -0.6300    -0.9700    -0.8140 ca         1 2NG      -0.084600
     23 CAV         -1.9570    -0.5360    -0.5900 ca         1 2NG      -0.054000
     24 CAQ         -0.4190    -2.2950    -1.2560 ca         1 2NG      -0.059000
     25 CAO         -1.5060    -3.1590    -1.4540 ca         1 2NG      -0.114000
     26 CBB         -2.8230    -2.7270    -1.2180 ca         1 2NG      -0.111300
     27 CAA         -3.9790    -3.7000    -1.4460 c3         1 2NG      -0.036800
     28 CBE         -3.0570    -1.4050    -0.7770 ca         1 2NG      -0.077000
     29 NAX         -4.4070    -0.9970    -0.5590 ns         1 2NG      -0.149000
     30 CAZ         -4.9700     0.1260     0.0400 c          1 2NG       0.602700
     31 OAB         -4.3040     1.0150     0.5580 o          1 2NG      -0.535100
     32 CBC         -6.4860     0.1890     0.0330 ca         1 2NG      -0.148600
     33 CAW         -7.1340     1.2970     0.6290 ca         1 2NG       0.003000
     34 CAN         -7.2800    -0.8270    -0.5540 ca         1 2NG      -0.047000
     35 CAL         -8.6800    -0.7320    -0.5400 ca         1 2NG      -0.136000
     36 CAP         -9.3150     0.3690     0.0530 ca         1 2NG      -0.044000
     37 CBG         -8.5460     1.3960     0.6440 ca         1 2NG      -0.190200
     38 NBL         -9.2160     2.5760     1.2790 no         1 2NG       0.696200
     39 OAK        -10.4530     2.6220     1.2710 o          1 2NG      -0.403000
     40 OAJ         -8.5020     3.4530     1.7850 o          1 2NG      -0.403000
     41 H1           5.3170    -2.6010     2.6710 ha         1 2NG       0.127000
     42 H2           7.3710    -1.3650     2.3510 ha         1 2NG       0.087000
     43 H3           7.4980     0.4890     0.8210 ha         1 2NG       0.133000
     44 H4           4.4520     2.6950    -2.2120 ha         1 2NG       0.128000
     45 H5           2.3820     1.4850    -2.0300 ha         1 2NG       0.094000
     46 H6           1.8270    -1.5560    -0.5390 hn         1 2NG       0.201000
     47 H7          -2.1140     0.4900    -0.2730 ha         1 2NG       0.150000
     48 H8           0.5780    -2.6660    -1.4750 ha         1 2NG       0.153000
     49 H9          -1.3180    -4.1730    -1.7990 ha         1 2NG       0.104000
     50 H10         -4.5650    -3.8380    -0.5290 hc         1 2NG       0.029033
     51 H11         -4.6540    -3.3330    -2.2280 hc         1 2NG       0.029033
     52 H12         -3.6240    -4.6890    -1.7580 hc         1 2NG       0.029033
     53 H13         -5.0850    -1.6580    -0.9120 hn         1 2NG       0.139000
     54 H14         -6.5320     2.0850     1.0820 ha         1 2NG       0.178000
     55 H15         -6.8310    -1.6990    -1.0250 ha         1 2NG       0.129000
     56 H16         -9.2790    -1.5200    -0.9940 ha         1 2NG       0.123000
     57 H17        -10.4030     0.4150     0.0480 ha         1 2NG       0.144000
@<TRIPOS>BOND
     1     1     2 1   
     2     2     3 1   
     3     2     4 1   
     4     2     5 1   
     5     5     6 ar  
     6     5     7 ar  
     7     6    10 ar  
     8     6    18 ar  
     9     7     8 ar  
    10     7    41 1   
    11     8     9 ar  
    12     8    42 1   
    13     9    10 ar  
    14     9    43 1   
    15    10    11 ar  
    16    11    12 1   
    17    11    16 ar  
    18    12    13 1   
    19    12    14 1   
    20    12    15 1   
    21    16    17 ar  
    22    16    44 1   
    23    17    18 ar  
    24    17    45 1   
    25    18    19 1   
    26    19    20 1   
    27    19    46 1   
    28    20    21 2   
    29    20    22 1   
    30    22    23 ar  
    31    22    24 ar  
    32    23    28 ar  
    33    23    47 1   
    34    24    25 ar  
    35    24    48 1   
    36    25    26 ar  
    37    25    49 1   
    38    26    27 1   
    39    26    28 ar  
    40    27    50 1   
    41    27    51 1   
    42    27    52 1   
    43    28    29 1   
    44    29    30 1   
    45    29    53 1   
    46    30    31 2   
    47    30    32 1   
    48    32    33 ar  
    49    32    34 ar  
    50    33    37 ar  
    51    33    54 1   
    52    34    35 ar  
    53    34    55 1   
    54    35    36 ar  
    55    35    56 1   
    56    36    37 ar  
    57    36    57 1   
    58    37    38 1   
    59    38    39 1   
    60    38    40 1   
@<TRIPOS>SUBSTRUCTURE
     1 2NG         1 TEMP              0 ****  ****    0 ROOT
