@<TRIPOS>MOLECULE
2NH
  109   108     1     0     0
SMALL
abcg2


@<TRIPOS>ATOM
      1 CD1         -0.3560     4.8190    -5.7630 c3         1 2NH      -0.085100
      2 CG4          0.1740     3.4040    -5.5760 c3         1 2NH      -0.067400
      3 CB4         -0.8850     2.4200    -5.0770 c3         1 2NH      -0.064700
      4 CG3         -1.3650     2.7520    -3.6690 c3         1 2NH      -0.085100
      5 CA4         -0.4100     0.9510    -5.1430 c3         1 2NH       0.016700
      6 N3           0.7710     0.6980    -4.3530 ns         1 2NH      -0.466900
      7 C19          0.7680     0.0160    -3.2000 c          1 2NH       0.596100
      8 O20         -0.2470    -0.3540    -2.6270 o          1 2NH      -0.643100
      9 CA3          2.1490    -0.3090    -2.6370 c3         1 2NH       0.031700
     10 N2           1.9940    -0.4760    -1.2110 ns         1 2NH      -0.493900
     11 C17          3.0080    -0.3440    -0.3440 c          1 2NH       0.596100
     12 O18          4.1450    -0.0630    -0.6820 o          1 2NH      -0.599100
     13 CA2          2.6590    -0.6390     1.1250 c3         1 2NH       0.057700
     14 CB2          1.2630    -0.1600     1.5390 c3         1 2NH       0.049600
     15 SG           1.0980    -0.3110     3.3390 ss         1 2NH      -0.449000
     16 C           -0.6920    -0.0090     3.5220 c3         1 2NH       0.111800
     17 C2          -1.0310    -0.1210     4.9750 c2         1 2NH      -0.218200
     18 C1          -0.8830     0.8460     5.8840 c2         1 2NH      -0.092400
     19 C4          -0.3810     2.2210     5.5580 c3         1 2NH      -0.060900
     20 C3          -1.2040     0.5890     7.3300 c3         1 2NH      -0.038200
     21 C5           0.0570     0.3760     8.1860 c3         1 2NH      -0.038200
     22 C7          -0.2820     0.2190     9.6340 c2         1 2NH      -0.218200
     23 C6          -0.2040    -0.8830    10.3850 c2         1 2NH      -0.116400
     24 C8           0.2870    -2.2130     9.8930 c3         1 2NH      -0.054900
     25 C9          -0.6410    -0.8500    11.8260 c3         1 2NH      -0.037200
     26 C10         -1.9260    -1.6520    12.0880 c3         1 2NH      -0.036200
     27 C11         -2.3190    -1.6090    13.5340 c2         1 2NH      -0.222200
     28 C12         -3.2400    -0.8240    14.1000 c2         1 2NH      -0.114400
     29 C13         -3.4930    -0.8670    15.5790 c3         1 2NH      -0.055400
     30 C14         -4.0830     0.1660    13.3530 c3         1 2NH      -0.055400
     31 N            3.6970    -0.1580     1.9940 ns         1 2NH      -0.495900
     32 C15          4.0080     1.1490     2.1120 c          1 2NH       0.616100
     33 CA           5.1610     1.4350     3.0420 c3         1 2NH      -0.178100
     34 O16          3.3920     2.0230     1.5250 o          1 2NH      -0.590100
     35 CB3          2.7650    -1.5650    -3.3040 c3         1 2NH      -0.073700
     36 CG1          1.8240    -2.7640    -3.2900 c3         1 2NH      -0.093600
     37 CG2          3.2810    -1.2820    -4.7110 c3         1 2NH      -0.093600
     38 C22         -0.1410     0.5400    -6.5900 c          1 2NH       0.592100
     39 O23          0.9950     0.4740    -7.0400 o          1 2NH      -0.639100
     40 N4          -1.2440     0.2730    -7.2980 ns         1 2NH      -0.445900
     41 CA5         -1.2680     0.2230    -8.7410 c3         1 2NH      -0.053300
     42 CB5         -2.3420    -0.7520    -9.2160 c3         1 2NH      -0.062400
     43 CG          -2.0770    -2.1790    -8.7590 c3         1 2NH       0.080600
     44 SD          -3.3670    -3.2810    -9.4050 ss         1 2NH      -0.471000
     45 CE          -2.8200    -4.8480    -8.6910 c3         1 2NH       0.042900
     46 C24         -1.4550     1.6340    -9.3710 c          1 2NH       0.715000
     47 OT1         -1.5000     1.6500   -10.6160 o          1 2NH      -0.717500
     48 OT2         -1.5300     2.6030    -8.5970 o          1 2NH      -0.717500
     49 HD11         0.4200     5.4710    -6.1670 hc         1 2NH       0.030033
     50 HD12        -1.1900     4.8260    -6.4670 hc         1 2NH       0.030033
     51 HD13        -0.7000     5.2650    -4.8300 hc         1 2NH       0.030033
     52 HG41         0.5650     3.0660    -6.5370 hc         1 2NH       0.048200
     53 HG42         1.0190     3.4190    -4.8790 hc         1 2NH       0.048200
     54 HB4         -1.7390     2.4870    -5.7590 hc         1 2NH       0.083700
     55 HG31        -0.5430     2.7320    -2.9520 hc         1 2NH       0.029033
     56 HG32        -1.8110     3.7470    -3.6290 hc         1 2NH       0.029033
     57 HG33        -2.1210     2.0420    -3.3310 hc         1 2NH       0.029033
     58 HA4         -1.2130     0.3260    -4.7460 h1         1 2NH       0.076700
     59 HN3          1.6580     0.9320    -4.7710 hn         1 2NH       0.336500
     60 HA3          2.8250     0.5320    -2.8140 h1         1 2NH       0.086700
     61 HN2          1.0750    -0.7410    -0.8930 hn         1 2NH       0.337500
     62 HA2          2.6700    -1.7290     1.2240 h1         1 2NH       0.067700
     63 HB21         1.0830     0.8710     1.2360 h1         1 2NH       0.079200
     64 HB22         0.5030    -0.7920     1.0750 h1         1 2NH       0.079200
     65 H1          -0.9280     0.9760     3.1150 h1         1 2NH       0.064700
     66 H2A         -1.2410    -0.7500     2.9410 h1         1 2NH       0.064700
     67 H2          -1.3860    -1.0920     5.3050 ha         1 2NH       0.175000
     68 H41         -0.0270     2.3170     4.5340 hc         1 2NH       0.045033
     69 H42         -1.1700     2.9600     5.7180 hc         1 2NH       0.045033
     70 H43          0.4450     2.5040     6.2140 hc         1 2NH       0.045033
     71 H31         -1.7720     1.4310     7.7390 hc         1 2NH       0.044700
     72 H32         -1.8400    -0.2940     7.4240 hc         1 2NH       0.044700
     73 H51          0.5990    -0.4880     7.8000 hc         1 2NH       0.049200
     74 H52          0.7240     1.2360     8.0700 hc         1 2NH       0.049200
     75 H7          -0.6650     1.1210    10.1090 ha         1 2NH       0.163000
     76 H81          0.7070    -2.1730     8.8890 hc         1 2NH       0.039033
     77 H82          1.0560    -2.6080    10.5610 hc         1 2NH       0.039033
     78 H83         -0.5170    -2.9530     9.8770 hc         1 2NH       0.039033
     79 H91          0.1580    -1.2460    12.4630 hc         1 2NH       0.043700
     80 H92         -0.8090     0.1840    12.1390 hc         1 2NH       0.043700
     81 H101        -2.7190    -1.2640    11.4450 hc         1 2NH       0.045700
     82 H102        -1.7720    -2.6940    11.7940 hc         1 2NH       0.045700
     83 H11         -1.7520    -2.2690    14.1870 ha         1 2NH       0.164000
     84 H131        -4.5370    -1.1110    15.7910 hc         1 2NH       0.038033
     85 H132        -2.8660    -1.6020    16.0820 hc         1 2NH       0.038033
     86 H133        -3.3050     0.1080    16.0370 hc         1 2NH       0.038033
     87 H141        -3.9340     0.1370    12.2750 hc         1 2NH       0.038033
     88 H142        -5.1450    -0.0020    13.5500 hc         1 2NH       0.038033
     89 H143        -3.8650     1.1830    13.6890 hc         1 2NH       0.038033
     90 HN           4.2790    -0.8400     2.4500 hn         1 2NH       0.319500
     91 HA1          5.3610     2.5020     3.0830 hc         1 2NH       0.057700
     92 HA2A         4.9390     1.0800     4.0490 hc         1 2NH       0.057700
     93 HA3A         6.0640     0.9210     2.7080 hc         1 2NH       0.057700
     94 HB3          3.6360    -1.8100    -2.6900 hc         1 2NH       0.055700
     95 HG11         2.3540    -3.6570    -3.6230 hc         1 2NH       0.040200
     96 HG12         1.4370    -2.9720    -2.2920 hc         1 2NH       0.040200
     97 HG13         0.9760    -2.6220    -3.9620 hc         1 2NH       0.040200
     98 HG21         2.4750    -1.1180    -5.4280 hc         1 2NH       0.040200
     99 HG22         3.9330    -0.4060    -4.7320 hc         1 2NH       0.040200
    100 HG23         3.8650    -2.1300    -5.0710 hc         1 2NH       0.040200
    101 HN4         -2.1300     0.4560    -6.8500 hn         1 2NH       0.297500
    102 HA5         -0.2950    -0.1540    -9.0710 h1         1 2NH       0.069700
    103 HB51        -3.3240    -0.4240    -8.8580 hc         1 2NH       0.062700
    104 HB52        -2.3750    -0.7120   -10.3050 hc         1 2NH       0.062700
    105 HG1         -1.1040    -2.5190    -9.1220 h1         1 2NH       0.052200
    106 HG2         -2.0690    -2.2480    -7.6700 h1         1 2NH       0.052200
    107 HE1         -3.5210    -5.6190    -9.0040 h1         1 2NH       0.049700
    108 HE2         -1.8260    -5.1160    -9.0460 h1         1 2NH       0.049700
    109 HE3         -2.8140    -4.8030    -7.6020 h1         1 2NH       0.049700
@<TRIPOS>BOND
     1     1     2 1   
     2     1    49 1   
     3     1    50 1   
     4     1    51 1   
     5     2     3 1   
     6     2    52 1   
     7     2    53 1   
     8     3     4 1   
     9     3     5 1   
    10     3    54 1   
    11     4    55 1   
    12     4    56 1   
    13     4    57 1   
    14     5     6 1   
    15     5    38 1   
    16     5    58 1   
    17     6     7 1   
    18     6    59 1   
    19     7     8 2   
    20     7     9 1   
    21     9    10 1   
    22     9    35 1   
    23     9    60 1   
    24    10    11 1   
    25    10    61 1   
    26    11    12 2   
    27    11    13 1   
    28    13    14 1   
    29    13    31 1   
    30    13    62 1   
    31    14    15 1   
    32    14    63 1   
    33    14    64 1   
    34    15    16 1   
    35    16    17 1   
    36    16    65 1   
    37    16    66 1   
    38    17    18 2   
    39    17    67 1   
    40    18    19 1   
    41    18    20 1   
    42    19    68 1   
    43    19    69 1   
    44    19    70 1   
    45    20    21 1   
    46    20    71 1   
    47    20    72 1   
    48    21    22 1   
    49    21    73 1   
    50    21    74 1   
    51    22    23 2   
    52    22    75 1   
    53    23    24 1   
    54    23    25 1   
    55    24    76 1   
    56    24    77 1   
    57    24    78 1   
    58    25    26 1   
    59    25    79 1   
    60    25    80 1   
    61    26    27 1   
    62    26    81 1   
    63    26    82 1   
    64    27    28 2   
    65    27    83 1   
    66    28    29 1   
    67    28    30 1   
    68    29    84 1   
    69    29    85 1   
    70    29    86 1   
    71    30    87 1   
    72    30    88 1   
    73    30    89 1   
    74    31    32 1   
    75    31    90 1   
    76    32    33 1   
    77    32    34 2   
    78    33    91 1   
    79    33    92 1   
    80    33    93 1   
    81    35    36 1   
    82    35    37 1   
    83    35    94 1   
    84    36    95 1   
    85    36    96 1   
    86    36    97 1   
    87    37    98 1   
    88    37    99 1   
    89    37   100 1   
    90    38    39 2   
    91    38    40 1   
    92    40    41 1   
    93    40   101 1   
    94    41    42 1   
    95    41    46 1   
    96    41   102 1   
    97    42    43 1   
    98    42   103 1   
    99    42   104 1   
   100    43    44 1   
   101    43   105 1   
   102    43   106 1   
   103    44    45 1   
   104    45   107 1   
   105    45   108 1   
   106    45   109 1   
   107    46    47 1   
   108    46    48 1   
@<TRIPOS>SUBSTRUCTURE
     1 2NH         1 TEMP              0 ****  ****    0 ROOT
