@<TRIPOS>MOLECULE
2NH
  109   108     1     0     0
SMALL
No Charge or Current Charge


@<TRIPOS>ATOM
      1 CD1         -1.4280     4.7200    -5.2430 c3         1 2NH      -0.085100
      2 CG4         -0.7450     3.3420    -5.3700 c3         1 2NH      -0.067400
      3 CB4         -1.6930     2.1240    -5.1530 c3         1 2NH      -0.064700
      4 CG3         -2.3170     2.1120    -3.7340 c3         1 2NH      -0.085100
      5 CA4         -1.0080     0.7600    -5.4920 c3         1 2NH       0.016700
      6 N3           0.2080     0.5290    -4.6760 ns         1 2NH      -0.466900
      7 C19          0.2620    -0.1990    -3.5060 c          1 2NH       0.596100
      8 O20         -0.7390    -0.7020    -3.0080 o          1 2NH      -0.643100
      9 CA3          1.6730    -0.3090    -2.8540 c3         1 2NH       0.031700
     10 N2           1.5180    -0.5850    -1.4060 ns         1 2NH      -0.493900
     11 C17          2.4560    -0.2970    -0.4340 c          1 2NH       0.596100
     12 O18          3.5230     0.2350    -0.7200 o          1 2NH      -0.599100
     13 CA2          2.0550    -0.7020     1.0200 c3         1 2NH       0.057700
     14 CB2          0.6630    -0.1490     1.4360 c3         1 2NH       0.049600
     15 SG           0.2200    -0.6780     3.1590 ss         1 2NH      -0.449000
     16 C           -0.5890     0.8650     3.7730 c3         1 2NH       0.111800
     17 C2          -0.8440     0.7150     5.2580 c2         1 2NH      -0.218200
     18 C1           0.0490     0.8600     6.2560 c2         1 2NH      -0.092400
     19 C4           1.5160     1.2210     6.0620 c3         1 2NH      -0.060900
     20 C3          -0.3390     0.6880     7.7180 c3         1 2NH      -0.038200
     21 C5           0.1270    -0.6570     8.3160 c3         1 2NH      -0.038200
     22 C7          -0.3570    -0.8490     9.7420 c2         1 2NH      -0.218200
     23 C6          -1.5310    -1.3690    10.1480 c2         1 2NH      -0.116400
     24 C8          -2.6390    -1.8580     9.2220 c3         1 2NH      -0.054900
     25 C9          -1.8680    -1.5390    11.6230 c3         1 2NH      -0.037200
     26 C10         -2.8200    -0.4490    12.1580 c3         1 2NH      -0.036200
     27 C11         -3.0710    -0.5870    13.6500 c2         1 2NH      -0.222200
     28 C12         -2.3440    -0.0610    14.6540 c2         1 2NH      -0.114400
     29 C13         -2.7180    -0.2510    16.1130 c3         1 2NH      -0.055400
     30 C14         -1.0800     0.7690    14.4870 c3         1 2NH      -0.055400
     31 N            3.1270    -0.3790     2.0010 ns         1 2NH      -0.495900
     32 C15          3.4470     0.8810     2.4600 c          1 2NH       0.616100
     33 CA           4.5440     0.9060     3.5170 c3         1 2NH      -0.178100
     34 O16          2.9050     1.9000     2.0590 o          1 2NH      -0.590100
     35 CB3          2.5890    -1.3850    -3.5250 c3         1 2NH      -0.073700
     36 CG1          1.9990    -2.8160    -3.4580 c3         1 2NH      -0.093600
     37 CG2          2.9950    -1.0230    -4.9730 c3         1 2NH      -0.093600
     38 C22         -0.6510     0.6390    -7.0020 c          1 2NH       0.592100
     39 O23          0.5010     0.6880    -7.4200 o          1 2NH      -0.639100
     40 N4          -1.7300     0.4550    -7.8440 ns         1 2NH      -0.445900
     41 CA5         -1.6510     0.2690    -9.3150 c3         1 2NH      -0.053300
     42 CB5         -1.5300    -1.2260    -9.7120 c3         1 2NH      -0.062400
     43 CG          -0.2660    -1.9260    -9.1730 c3         1 2NH       0.080600
     44 SD          -0.1760    -3.6690    -9.7840 ss         1 2NH      -0.471000
     45 CE           1.3840    -4.2100    -8.9510 c3         1 2NH       0.042900
     46 C24         -2.8740     0.9380   -10.0110 c          1 2NH       0.715000
     47 OT1         -2.6590     1.7280   -10.9180 o          1 2NH      -0.717500
     48 OT2         -3.9920     0.7160    -9.5630 o          1 2NH      -0.717500
     49 HD11        -0.7230     5.5170    -5.5090 hc         1 2NH       0.030033
     50 HD12        -2.2910     4.7910    -5.9160 hc         1 2NH       0.030033
     51 HD13        -1.7670     4.9030    -4.2170 hc         1 2NH       0.030033
     52 HG41        -0.3000     3.2820    -6.3710 hc         1 2NH       0.048200
     53 HG42         0.0870     3.2950    -4.6570 hc         1 2NH       0.048200
     54 HB4         -2.5320     2.2400    -5.8520 hc         1 2NH       0.083700
     55 HG31        -1.5400     2.1250    -2.9610 hc         1 2NH       0.029033
     56 HG32        -2.9670     2.9810    -3.5810 hc         1 2NH       0.029033
     57 HG33        -2.9320     1.2150    -3.5890 hc         1 2NH       0.029033
     58 HA4         -1.7230    -0.0480    -5.2880 h1         1 2NH       0.076700
     59 HN3          1.0880     0.8790    -5.0370 hn         1 2NH       0.336500
     60 HA3          2.1490     0.6750    -2.9610 h1         1 2NH       0.086700
     61 HN2          0.6580    -1.0300    -1.1070 hn         1 2NH       0.337500
     62 HA2          1.9650    -1.7950     1.0010 h1         1 2NH       0.067700
     63 HB21         0.6680     0.9470     1.3770 h1         1 2NH       0.079200
     64 HB22        -0.1140    -0.5120     0.7520 h1         1 2NH       0.079200
     65 H1           0.0580     1.7300     3.5760 h1         1 2NH       0.064700
     66 H2A         -1.5350     1.0170     3.2350 h1         1 2NH       0.064700
     67 H2          -1.8780     0.4560     5.4890 ha         1 2NH       0.175000
     68 H41          1.7740     1.3890     5.0110 hc         1 2NH       0.045033
     69 H42          1.7710     2.1390     6.6060 hc         1 2NH       0.045033
     70 H43          2.1750     0.4240     6.4260 hc         1 2NH       0.045033
     71 H31          0.0580     1.5140     8.3210 hc         1 2NH       0.044700
     72 H32         -1.4300     0.7430     7.8200 hc         1 2NH       0.044700
     73 H51         -0.2200    -1.4740     7.6730 hc         1 2NH       0.049200
     74 H52          1.2220    -0.7080     8.2930 hc         1 2NH       0.049200
     75 H7           0.3730    -0.5280    10.4870 ha         1 2NH       0.163000
     76 H81         -2.4020    -1.7210     8.1630 hc         1 2NH       0.039033
     77 H82         -2.8340    -2.9270     9.3750 hc         1 2NH       0.039033
     78 H83         -3.5770    -1.3210     9.4060 hc         1 2NH       0.039033
     79 H91         -2.3030    -2.5290    11.8060 hc         1 2NH       0.043700
     80 H92         -0.9470    -1.5050    12.2180 hc         1 2NH       0.043700
     81 H101        -2.4030     0.5370    11.9230 hc         1 2NH       0.045700
     82 H102        -3.7760    -0.5010    11.6230 hc         1 2NH       0.045700
     83 H11         -3.9620    -1.1730    13.8810 ha         1 2NH       0.164000
     84 H131        -2.8960     0.7130    16.6040 hc         1 2NH       0.038033
     85 H132        -3.6310    -0.8490    16.2250 hc         1 2NH       0.038033
     86 H133        -1.9200    -0.7640    16.6620 hc         1 2NH       0.038033
     87 H141        -0.7670     0.8650    13.4420 hc         1 2NH       0.038033
     88 H142        -1.2220     1.7830    14.8800 hc         1 2NH       0.038033
     89 H143        -0.2410     0.3180    15.0300 hc         1 2NH       0.038033
     90 HN           3.6490    -1.1460     2.4060 hn         1 2NH       0.319500
     91 HA1          4.7730     1.9200     3.8640 hc         1 2NH       0.057700
     92 HA2A         4.2550     0.2500     4.3460 hc         1 2NH       0.057700
     93 HA3A         5.4330     0.4030     3.1210 hc         1 2NH       0.057700
     94 HB3          3.5240    -1.4050    -2.9500 hc         1 2NH       0.055700
     95 HG11         2.7070    -3.5430    -3.8740 hc         1 2NH       0.040200
     96 HG12         1.7890    -3.1100    -2.4230 hc         1 2NH       0.040200
     97 HG13         1.0670    -2.8860    -4.0320 hc         1 2NH       0.040200
     98 HG21         2.1460    -1.1090    -5.6610 hc         1 2NH       0.040200
     99 HG22         3.3870    -0.0000    -5.0270 hc         1 2NH       0.040200
    100 HG23         3.7800    -1.7010    -5.3300 hc         1 2NH       0.040200
    101 HN4         -2.6490     0.4420    -7.4160 hn         1 2NH       0.297500
    102 HA5         -0.7600     0.7940    -9.6810 h1         1 2NH       0.069700
    103 HB51        -2.4180    -1.7680    -9.3630 hc         1 2NH       0.062700
    104 HB52        -1.5280    -1.2970   -10.8070 hc         1 2NH       0.062700
    105 HG1          0.6290    -1.3830    -9.5030 h1         1 2NH       0.052200
    106 HG2         -0.2830    -1.9380    -8.0760 h1         1 2NH       0.052200
    107 HE1          1.5980    -5.2560    -9.2080 h1         1 2NH       0.049700
    108 HE2          2.2200    -3.5810    -9.2810 h1         1 2NH       0.049700
    109 HE3          1.2750    -4.1230    -7.8620 h1         1 2NH       0.049700
@<TRIPOS>BOND
     1     1     2 1   
     2     1    49 1   
     3     1    50 1   
     4     1    51 1   
     5     2     3 1   
     6     2    52 1   
     7     2    53 1   
     8     3     4 1   
     9     3     5 1   
    10     3    54 1   
    11     4    55 1   
    12     4    56 1   
    13     4    57 1   
    14     5     6 1   
    15     5    38 1   
    16     5    58 1   
    17     6     7 1   
    18     6    59 1   
    19     7     8 2   
    20     7     9 1   
    21     9    10 1   
    22     9    35 1   
    23     9    60 1   
    24    10    11 1   
    25    10    61 1   
    26    11    12 2   
    27    11    13 1   
    28    13    14 1   
    29    13    31 1   
    30    13    62 1   
    31    14    15 1   
    32    14    63 1   
    33    14    64 1   
    34    15    16 1   
    35    16    17 1   
    36    16    65 1   
    37    16    66 1   
    38    17    18 2   
    39    17    67 1   
    40    18    19 1   
    41    18    20 1   
    42    19    68 1   
    43    19    69 1   
    44    19    70 1   
    45    20    21 1   
    46    20    71 1   
    47    20    72 1   
    48    21    22 1   
    49    21    73 1   
    50    21    74 1   
    51    22    23 2   
    52    22    75 1   
    53    23    24 1   
    54    23    25 1   
    55    24    76 1   
    56    24    77 1   
    57    24    78 1   
    58    25    26 1   
    59    25    79 1   
    60    25    80 1   
    61    26    27 1   
    62    26    81 1   
    63    26    82 1   
    64    27    28 2   
    65    27    83 1   
    66    28    29 1   
    67    28    30 1   
    68    29    84 1   
    69    29    85 1   
    70    29    86 1   
    71    30    87 1   
    72    30    88 1   
    73    30    89 1   
    74    31    32 1   
    75    31    90 1   
    76    32    33 1   
    77    32    34 2   
    78    33    91 1   
    79    33    92 1   
    80    33    93 1   
    81    35    36 1   
    82    35    37 1   
    83    35    94 1   
    84    36    95 1   
    85    36    96 1   
    86    36    97 1   
    87    37    98 1   
    88    37    99 1   
    89    37   100 1   
    90    38    39 2   
    91    38    40 1   
    92    40    41 1   
    93    40   101 1   
    94    41    42 1   
    95    41    46 1   
    96    41   102 1   
    97    42    43 1   
    98    42   103 1   
    99    42   104 1   
   100    43    44 1   
   101    43   105 1   
   102    43   106 1   
   103    44    45 1   
   104    45   107 1   
   105    45   108 1   
   106    45   109 1   
   107    46    47 1   
   108    46    48 1   
@<TRIPOS>SUBSTRUCTURE
     1 2NH         1 TEMP              0 ****  ****    0 ROOT
