@<TRIPOS>MOLECULE
2NI
   40    41     1     0     0
SMALL
bcc


@<TRIPOS>ATOM
      1 C1          -1.2650    -1.3610    -0.2370 ca         1 2NI      -0.074000
      2 C2           0.1080    -1.5120    -0.3640 ca         1 2NI      -0.190000
      3 C3           0.9200    -0.3850    -0.4530 ca         1 2NI       0.151100
      4 C4           0.3370     0.8830    -0.4150 ca         1 2NI      -0.190000
      5 C5          -1.0300     1.0150    -0.2870 ca         1 2NI      -0.074000
      6 C6          -1.8640    -0.1050    -0.1970 cp         1 2NI      -0.081000
      7 C7          -3.3240     0.0400    -0.0640 cp         1 2NI       0.002000
      8 C8          -4.1920    -0.9000    -0.6280 ca         1 2NI      -0.128500
      9 C9          -5.5620    -0.7730    -0.5030 ca         1 2NI      -0.087500
     10 C10         -6.0950     0.3130     0.1920 ca         1 2NI      -0.021000
     11 C11         -5.2450     1.2630     0.7580 ca         1 2NI      -0.087500
     12 C12         -3.8770     1.1210     0.6290 ca         1 2NI      -0.128500
     13 C13         -7.5080     0.4510     0.3230 cg         1 2NI       0.234800
     14 N1          -8.6500     0.5630     0.4280 n1         1 2NI      -0.362800
     15 O1           2.2590    -0.4260    -0.5780 os         1 2NI      -0.338900
     16 C14          2.9150    -1.6810    -0.6290 c3         1 2NI       0.113400
     17 C15          4.4040    -1.4250    -0.7530 c3         1 2NI       0.103000
     18 N2           4.9860    -0.7480     0.3870 n          1 2NI      -0.491800
     19 C16          5.2700    -1.5790     1.5370 c3         1 2NI       0.091300
     20 C17          5.2170     0.5920     0.4490 c          1 2NI       0.761100
     21 O2           5.7920     1.1320     1.3780 o          1 2NI      -0.594100
     22 N3           4.8130     1.3030    -0.6760 ns         1 2NI      -0.401400
     23 O3           4.8850     2.6700    -0.5280 oh         1 2NI      -0.418100
     24 H1          -1.8710    -2.2540    -0.1460 ha         1 2NI       0.135500
     25 H2           0.5210    -2.5110    -0.3840 ha         1 2NI       0.143000
     26 H4           0.9640     1.7620    -0.4960 ha         1 2NI       0.143000
     27 H5          -1.4540     2.0120    -0.2800 ha         1 2NI       0.135500
     28 H8          -3.7980    -1.7350    -1.1920 ha         1 2NI       0.139000
     29 H9          -6.2170    -1.5080    -0.9500 ha         1 2NI       0.144500
     30 H11         -5.6540     2.1040     1.3010 ha         1 2NI       0.144500
     31 H12         -3.2330     1.8550     1.0950 ha         1 2NI       0.139000
     32 H141         2.5800    -2.2610    -1.4950 h1         1 2NI       0.045700
     33 H142         2.6970    -2.2650     0.2710 h1         1 2NI       0.045700
     34 H151         4.6220    -0.8820    -1.6750 h1         1 2NI       0.065700
     35 H152         4.8910    -2.3970    -0.8600 h1         1 2NI       0.065700
     36 H161         5.8380    -1.0250     2.2760 h1         1 2NI       0.044367
     37 H162         4.3530    -1.9390     2.0090 h1         1 2NI       0.044367
     38 H163         5.8550    -2.4470     1.2310 h1         1 2NI       0.044367
     39 HN3          3.9120     1.0560    -1.0650 hn         1 2NI       0.313500
     40 HO3          5.6050     2.9450    -1.1060 ho         1 2NI       0.418000
@<TRIPOS>BOND
     1     1     2 ar  
     2     1     6 ar  
     3     1    24 1   
     4     2     3 ar  
     5     2    25 1   
     6     3     4 ar  
     7     3    15 1   
     8     4     5 ar  
     9     4    26 1   
    10     5     6 ar  
    11     5    27 1   
    12     6     7 1   
    13     7     8 ar  
    14     7    12 ar  
    15     8     9 ar  
    16     8    28 1   
    17     9    10 ar  
    18     9    29 1   
    19    10    11 ar  
    20    10    13 1   
    21    11    12 ar  
    22    11    30 1   
    23    12    31 1   
    24    13    14 3   
    25    15    16 1   
    26    16    17 1   
    27    16    32 1   
    28    16    33 1   
    29    17    18 1   
    30    17    34 1   
    31    17    35 1   
    32    18    19 1   
    33    18    20 1   
    34    19    36 1   
    35    19    37 1   
    36    19    38 1   
    37    20    21 2   
    38    20    22 1   
    39    22    23 1   
    40    22    39 1   
    41    23    40 1   
@<TRIPOS>SUBSTRUCTURE
     1 2NI         1 TEMP              0 ****  ****    0 ROOT
