@<TRIPOS>MOLECULE
2NI
   40    41     1     0     0
SMALL
No Charge or Current Charge


@<TRIPOS>ATOM
      1 C1          -1.2960    -1.3780    -0.2430 ca         1 2NI      -0.056000
      2 C2           0.0970    -1.5330    -0.3610 ca         1 2NI      -0.172000
      3 C3           0.9250    -0.3980    -0.4790 ca         1 2NI       0.151100
      4 C4           0.3480     0.8800    -0.4770 ca         1 2NI      -0.172000
      5 C5          -1.0440     1.0330    -0.3580 ca         1 2NI      -0.056000
      6 C6          -1.8950    -0.0930    -0.2390 cp         1 2NI      -0.081000
      7 C7          -3.3790     0.0680    -0.1130 cp         1 2NI       0.002000
      8 C8          -4.2700    -0.8640    -0.7010 ca         1 2NI      -0.110500
      9 C9          -5.6640    -0.7140    -0.5830 ca         1 2NI      -0.069500
     10 C10         -6.2000     0.3750     0.1280 ca         1 2NI      -0.021000
     11 C11         -5.3320     1.3110     0.7190 ca         1 2NI      -0.069500
     12 C12         -3.9400     1.1580     0.5990 ca         1 2NI      -0.110500
     13 C13         -7.6240     0.5300     0.2490 cg         1 2NI       0.324000
     14 N1          -8.7820     0.6470     0.3520 n1         1 2NI      -0.452000
     15 O1           2.2960    -0.4850    -0.5980 os         1 2NI      -0.362100
     16 C14          2.9910    -1.7460    -0.5840 c3         1 2NI       0.136600
     17 C15          4.5030    -1.4640    -0.7140 c3         1 2NI       0.103000
     18 N2           5.1060    -0.8010     0.4760 n          1 2NI      -0.424800
     19 C16          5.7000    -1.6780     1.5100 c3         1 2NI       0.091300
     20 C17          5.2420     0.6010     0.5840 c          1 2NI       0.627100
     21 O2           5.8980     1.1170     1.4790 o          1 2NI      -0.594100
     22 N3           4.5880     1.3560    -0.3830 ns         1 2NI      -0.334400
     23 O3           4.4450     2.7920    -0.2430 oh         1 2NI      -0.457100
     24 H1          -1.9150    -2.2670    -0.1400 ha         1 2NI       0.117500
     25 H2           0.5120    -2.5360    -0.3560 ha         1 2NI       0.125000
     26 H4           0.9830     1.7570    -0.5700 ha         1 2NI       0.125000
     27 H5          -1.4650     2.0360    -0.3730 ha         1 2NI       0.117500
     28 H8          -3.8800    -1.7060    -1.2670 ha         1 2NI       0.121000
     29 H9          -6.3240    -1.4440    -1.0490 ha         1 2NI       0.126500
     30 H11         -5.7340     2.1570     1.2750 ha         1 2NI       0.126500
     31 H12         -3.2890     1.8870     1.0760 ha         1 2NI       0.121000
     32 H141         2.6690    -2.3710    -1.4270 h1         1 2NI       0.045700
     33 H142         2.8000    -2.2910     0.3500 h1         1 2NI       0.045700
     34 H151         4.6920    -0.8740    -1.6200 h1         1 2NI       0.065700
     35 H152         5.0120    -2.4250    -0.8690 h1         1 2NI       0.065700
     36 H161         6.7940    -1.6620     1.4240 h1         1 2NI       0.044367
     37 H162         5.4110    -1.3260     2.5080 h1         1 2NI       0.044367
     38 H163         5.3460    -2.7100     1.3880 h1         1 2NI       0.044367
     39 HN3          3.8720     0.8930    -0.9390 hn         1 2NI       0.313500
     40 HO3          4.7040     3.1340    -1.1310 ho         1 2NI       0.457000
@<TRIPOS>BOND
     1     1     2 ar  
     2     1     6 ar  
     3     1    24 1   
     4     2     3 ar  
     5     2    25 1   
     6     3     4 ar  
     7     3    15 1   
     8     4     5 ar  
     9     4    26 1   
    10     5     6 ar  
    11     5    27 1   
    12     6     7 1   
    13     7     8 ar  
    14     7    12 ar  
    15     8     9 ar  
    16     8    28 1   
    17     9    10 ar  
    18     9    29 1   
    19    10    11 ar  
    20    10    13 1   
    21    11    12 ar  
    22    11    30 1   
    23    12    31 1   
    24    13    14 3   
    25    15    16 1   
    26    16    17 1   
    27    16    32 1   
    28    16    33 1   
    29    17    18 1   
    30    17    34 1   
    31    17    35 1   
    32    18    19 1   
    33    18    20 1   
    34    19    36 1   
    35    19    37 1   
    36    19    38 1   
    37    20    21 2   
    38    20    22 1   
    39    22    23 1   
    40    22    39 1   
    41    23    40 1   
@<TRIPOS>SUBSTRUCTURE
     1 2NI         1 TEMP              0 ****  ****    0 ROOT
