@<TRIPOS>MOLECULE
2NJ
   35    37     1     0     0
SMALL
No Charge or Current Charge


@<TRIPOS>ATOM
      1 O           -1.8280    -2.9800    -0.4870 o          1 2NJ      -0.555000
      2 C9          -1.5450    -1.7860    -0.4850 c          1 2NJ       0.579000
      3 N           -2.4900    -0.7930    -0.1280 n          1 2NJ      -0.218400
      4 C           -3.9050    -1.2080     0.0260 c3         1 2NJ       0.090300
      5 C8          -0.1450    -1.3340    -0.8780 c3         1 2NJ      -0.163400
      6 C7           0.6620    -1.0470     0.3920 c3         1 2NJ       0.259800
      7 C10          2.1040    -0.6400     0.0840 ca         1 2NJ      -0.133300
      8 C15          3.1740    -1.4200     0.5710 ca         1 2NJ      -0.097000
      9 C14          4.5040    -1.0570     0.2940 ca         1 2NJ      -0.111500
     10 C13          4.7770     0.0900    -0.4690 ca         1 2NJ      -0.101000
     11 C12          3.7190     0.8760    -0.9540 ca         1 2NJ      -0.111500
     12 C11          2.3890     0.5140    -0.6800 ca         1 2NJ      -0.097000
     13 N1           0.0280     0.0010     1.1990 nu         1 2NJ      -0.916200
     14 C6          -0.8850     0.9500     0.7200 ca         1 2NJ       0.244000
     15 C1          -2.1450     0.5850     0.1620 ca         1 2NJ      -0.051000
     16 C5          -0.5490     2.3070     0.8670 ca         1 2NJ      -0.149000
     17 C4          -1.4090     3.3120     0.4000 ca         1 2NJ      -0.099000
     18 C3          -2.6090     2.9610    -0.2310 ca         1 2NJ      -0.115000
     19 C2          -2.9630     1.6090    -0.3690 ca         1 2NJ      -0.116000
     20 H1          -4.3480    -1.3780    -0.9630 h1         1 2NJ       0.046367
     21 H2          -3.9670    -2.1320     0.6150 h1         1 2NJ       0.046367
     22 H3          -4.4770    -0.4320     0.5500 h1         1 2NJ       0.046367
     23 H4           0.3540    -2.1170    -1.4580 hc         1 2NJ       0.076200
     24 H5          -0.2060    -0.4080    -1.4600 hc         1 2NJ       0.076200
     25 H6           0.6940    -1.9740     0.9840 h1         1 2NJ       0.077700
     26 H7           2.9780    -2.3110     1.1630 ha         1 2NJ       0.116000
     27 H8           5.3230    -1.6650     0.6720 ha         1 2NJ       0.115500
     28 H9           5.8070     0.3710    -0.6820 ha         1 2NJ       0.115000
     29 H10          3.9290     1.7660    -1.5430 ha         1 2NJ       0.115500
     30 H11          1.5800     1.1350    -1.0570 ha         1 2NJ       0.116000
     31 H12          0.6640     0.3910     1.8940 hn         1 2NJ       0.447000
     32 H13          0.3950     2.5850     1.3280 ha         1 2NJ       0.115000
     33 H14         -1.1340     4.3600     0.5080 ha         1 2NJ       0.115000
     34 H15         -3.2630     3.7370    -0.6240 ha         1 2NJ       0.118000
     35 H16         -3.8840     1.3620    -0.8920 ha         1 2NJ       0.121000
@<TRIPOS>BOND
     1     1     2 2   
     2     2     3 1   
     3     2     5 1   
     4     3     4 1   
     5     3    15 1   
     6     4    20 1   
     7     4    21 1   
     8     4    22 1   
     9     5     6 1   
    10     5    23 1   
    11     5    24 1   
    12     6     7 1   
    13     6    13 1   
    14     6    25 1   
    15     7     8 ar  
    16     7    12 ar  
    17     8     9 ar  
    18     8    26 1   
    19     9    10 ar  
    20     9    27 1   
    21    10    11 ar  
    22    10    28 1   
    23    11    12 ar  
    24    11    29 1   
    25    12    30 1   
    26    13    14 1   
    27    13    31 1   
    28    14    15 ar  
    29    14    16 ar  
    30    15    19 ar  
    31    16    17 ar  
    32    16    32 1   
    33    17    18 ar  
    34    17    33 1   
    35    18    19 ar  
    36    18    34 1   
    37    19    35 1   
@<TRIPOS>SUBSTRUCTURE
     1 2NJ         1 TEMP              0 ****  ****    0 ROOT
