@<TRIPOS>MOLECULE
2NJ
   35    37     1     0     0
SMALL
bcc


@<TRIPOS>ATOM
      1 O           -1.9570    -2.9420    -0.6150 o          1 2NJ      -0.630500
      2 C9          -1.5860    -1.7820    -0.5250 c          1 2NJ       0.721500
      3 N           -2.4240    -0.7870    -0.1360 n          1 2NJ      -0.378000
      4 C           -3.8200    -1.1000     0.1330 c3         1 2NJ       0.090300
      5 C8          -0.1690    -1.3710    -0.8500 c3         1 2NJ      -0.163400
      6 C7           0.6420    -1.0940     0.4140 c3         1 2NJ       0.259800
      7 C10          2.0470    -0.6380     0.0820 ca         1 2NJ      -0.133300
      8 C15          3.1390    -1.3510     0.5660 ca         1 2NJ      -0.115000
      9 C14          4.4380    -0.9360     0.2970 ca         1 2NJ      -0.129500
     10 C13          4.6580     0.2080    -0.4560 ca         1 2NJ      -0.119000
     11 C12          3.5740     0.9290    -0.9430 ca         1 2NJ      -0.129500
     12 C11          2.2800     0.5090    -0.6790 ca         1 2NJ      -0.115000
     13 N1          -0.0730    -0.1470     1.2730 nu         1 2NJ      -0.722600
     14 C6          -0.8370     0.8710     0.7000 ca         1 2NJ       0.105600
     15 C1          -2.0050     0.5550    -0.0120 ca         1 2NJ       0.041600
     16 C5          -0.5100     2.2160     0.8800 ca         1 2NJ      -0.167000
     17 C4          -1.3200     3.2250     0.3840 ca         1 2NJ      -0.117000
     18 C3          -2.4640     2.9050    -0.3340 ca         1 2NJ      -0.133000
     19 C2          -2.7950     1.5730    -0.5330 ca         1 2NJ      -0.134000
     20 H1          -4.4290    -1.0630    -0.7710 h1         1 2NJ       0.046367
     21 H2          -3.9010    -2.0960     0.5600 h1         1 2NJ       0.046367
     22 H3          -4.2160    -0.3860     0.8500 h1         1 2NJ       0.046367
     23 H4           0.3060    -2.1830    -1.3980 hc         1 2NJ       0.076200
     24 H5          -0.1690    -0.4940    -1.5020 hc         1 2NJ       0.076200
     25 H6           0.7210    -2.0320     0.9710 h1         1 2NJ       0.077700
     26 H7           2.9730    -2.2400     1.1630 ha         1 2NJ       0.134000
     27 H8           5.2750    -1.5060     0.6790 ha         1 2NJ       0.133500
     28 H9           5.6680     0.5380    -0.6630 ha         1 2NJ       0.133000
     29 H10          3.7380     1.8220    -1.5330 ha         1 2NJ       0.133500
     30 H11          1.4490     1.0830    -1.0720 ha         1 2NJ       0.134000
     31 H12          0.5390     0.2130     1.9930 hn         1 2NJ       0.391800
     32 H13          0.3920     2.4660     1.4260 ha         1 2NJ       0.133000
     33 H14         -1.0470     4.2590     0.5460 ha         1 2NJ       0.133000
     34 H15         -3.0970     3.6840    -0.7380 ha         1 2NJ       0.136000
     35 H16         -3.6900     1.3210    -1.0890 ha         1 2NJ       0.139000
@<TRIPOS>BOND
     1     1     2 2   
     2     2     3 1   
     3     2     5 1   
     4     3     4 1   
     5     3    15 1   
     6     4    20 1   
     7     4    21 1   
     8     4    22 1   
     9     5     6 1   
    10     5    23 1   
    11     5    24 1   
    12     6     7 1   
    13     6    13 1   
    14     6    25 1   
    15     7     8 ar  
    16     7    12 ar  
    17     8     9 ar  
    18     8    26 1   
    19     9    10 ar  
    20     9    27 1   
    21    10    11 ar  
    22    10    28 1   
    23    11    12 ar  
    24    11    29 1   
    25    12    30 1   
    26    13    14 1   
    27    13    31 1   
    28    14    15 ar  
    29    14    16 ar  
    30    15    19 ar  
    31    16    17 ar  
    32    16    32 1   
    33    17    18 ar  
    34    17    33 1   
    35    18    19 ar  
    36    18    34 1   
    37    19    35 1   
@<TRIPOS>SUBSTRUCTURE
     1 2NJ         1 TEMP              0 ****  ****    0 ROOT
