@<TRIPOS>MOLECULE
2NK
   49    52     1     0     0
SMALL
No Charge or Current Charge


@<TRIPOS>ATOM
      1 C1           4.4970    -1.7240     0.2070 ca         1 2NK       0.347900
      2 N1           4.7660    -3.0530     0.2170 nb         1 2NK      -0.663000
      3 C2           3.7310    -3.9210     0.1050 ca         1 2NK       0.339900
      4 C3           2.3880    -3.5220    -0.0050 ca         1 2NK      -0.163000
      5 C4           2.0730    -2.1470    -0.0030 cp         1 2NK       0.038000
      6 C5           3.1960    -1.2010     0.0850 cq         1 2NK      -0.091000
      7 C6           3.0430     0.2930    -0.0300 cq         1 2NK      -0.018000
      8 C7           0.6330    -1.7430     0.0090 cp         1 2NK      -0.100000
      9 C8           3.7990     1.1600     0.7890 ca         1 2NK      -0.114500
     10 C9           3.6540     2.5530     0.6800 ca         1 2NK       0.125500
     11 C10          2.7550     3.1120    -0.2510 ca         1 2NK       0.068100
     12 C11          2.0080     2.2470    -1.0730 ca         1 2NK       0.125500
     13 C12          2.1520     0.8550    -0.9680 ca         1 2NK      -0.114500
     14 F1           4.3880     3.3550     1.4870 f          1 2NK      -0.170500
     15 C13          0.1620    -0.7420     0.8920 ca         1 2NK      -0.057000
     16 C14         -1.1900    -0.3600     0.8970 ca         1 2NK      -0.171000
     17 C15         -2.1130    -0.9690     0.0290 ca         1 2NK       0.315000
     18 C16         -1.6580    -1.9770    -0.8430 ca         1 2NK      -0.171000
     19 C17         -0.3050    -2.3600    -0.8520 ca         1 2NK      -0.057000
     20 O1           2.6110     4.4770    -0.3570 oh         1 2NK      -0.506100
     21 F2           1.1410     2.7560    -1.9800 f          1 2NK      -0.170500
     22 N2          -3.4700    -0.5660     0.0500 nh         1 2NK      -0.789400
     23 C18         -3.8280     0.8770    -0.1400 c6         1 2NK       0.199300
     24 C19         -5.2390     1.2280     0.4350 c6         1 2NK       0.155800
     25 N3          -6.3160     0.3280    -0.0790 n3         1 2NK      -0.712600
     26 C20         -5.9580    -1.0970     0.1980 c6         1 2NK       0.155800
     27 C21         -4.5620    -1.4970    -0.3830 c6         1 2NK       0.199300
     28 C22         -7.6550     0.6900     0.4340 c3         1 2NK       0.151100
     29 H1           5.3620    -1.0640     0.2590 h4         1 2NK       0.022100
     30 H2           3.9880    -4.9790     0.1200 h4         1 2NK       0.021100
     31 H3           1.6080    -4.2750    -0.0500 ha         1 2NK       0.127000
     32 H4           4.4930     0.7660     1.5270 ha         1 2NK       0.144000
     33 H5           1.5680     0.2190    -1.6290 ha         1 2NK       0.144000
     34 H6           0.8500    -0.2620     1.5830 ha         1 2NK       0.115000
     35 H7          -1.5240     0.4050     1.5920 ha         1 2NK       0.116500
     36 H8          -2.3440    -2.4610    -1.5310 ha         1 2NK       0.116500
     37 H9           0.0220    -3.1310    -1.5460 ha         1 2NK       0.115000
     38 H10          1.9470     4.6670    -1.0570 ho         1 2NK       0.480000
     39 H11         -3.0880     1.5310     0.3420 h1         1 2NK       0.046200
     40 H12         -3.8180     1.1170    -1.2140 h1         1 2NK       0.046200
     41 H13         -5.1900     1.1660     1.5330 h1         1 2NK       0.040950
     42 H14         -5.4660     2.2750     0.1850 h1         1 2NK       0.040950
     43 H16         -5.9460    -1.2760     1.2830 h1         1 2NK       0.040950
     44 H17         -6.7180    -1.7690    -0.2270 h1         1 2NK       0.040950
     45 H18         -4.6290    -1.5050    -1.4810 h1         1 2NK       0.046200
     46 H19         -4.3380    -2.5240    -0.0590 h1         1 2NK       0.046200
     47 H20         -7.9030     1.7280     0.1720 h1         1 2NK       0.033033
     48 H21         -8.4260     0.0390    -0.0000 h1         1 2NK       0.033033
     49 H22         -7.6970     0.5920     1.5270 h1         1 2NK       0.033033
@<TRIPOS>BOND
     1     1     2 ar  
     2     1     6 2   
     3     1    29 1   
     4     2     3 ar  
     5     3     4 ar  
     6     3    30 1   
     7     4     5 ar  
     8     4    31 1   
     9     5     6 1   
    10     5     8 1   
    11     6     7 1   
    12     7     9 1   
    13     7    13 2   
    14     8    15 ar  
    15     8    19 ar  
    16     9    10 ar  
    17     9    32 1   
    18    10    11 ar  
    19    10    14 1   
    20    11    12 ar  
    21    11    20 1   
    22    12    13 ar  
    23    12    21 1   
    24    13    33 1   
    25    15    16 ar  
    26    15    34 1   
    27    16    17 ar  
    28    16    35 1   
    29    17    18 ar  
    30    17    22 1   
    31    18    19 ar  
    32    18    36 1   
    33    19    37 1   
    34    20    38 1   
    35    22    23 1   
    36    22    27 1   
    37    23    24 1   
    38    23    39 1   
    39    23    40 1   
    40    24    25 1   
    41    24    41 1   
    42    24    42 1   
    43    25    26 1   
    44    25    28 1   
    45    26    27 1   
    46    26    43 1   
    47    26    44 1   
    48    27    45 1   
    49    27    46 1   
    50    28    47 1   
    51    28    48 1   
    52    28    49 1   
@<TRIPOS>SUBSTRUCTURE
     1 2NK         1 TEMP              0 ****  ****    0 ROOT
