@<TRIPOS>MOLECULE
2NK
   49    52     1     0     0
SMALL
bcc


@<TRIPOS>ATOM
      1 C1           4.3990    -1.7130    -0.0050 ca         1 2NK       0.413200
      2 N1           4.7120    -2.9980     0.0540 nb         1 2NK      -0.663000
      3 C2           3.7070    -3.8640     0.1080 ca         1 2NK       0.405200
      4 C3           2.3770    -3.4820     0.1200 ca         1 2NK      -0.246300
      5 C4           2.0400    -2.1300     0.0730 cp         1 2NK       0.038000
      6 C5           3.0980    -1.2110    -0.0070 cq         1 2NK      -0.156300
      7 C6           2.9010     0.2470    -0.1330 cq         1 2NK      -0.018000
      8 C7           0.6240    -1.7260     0.1250 cp         1 2NK      -0.100000
      9 C8           3.5520     1.1190     0.7370 ca         1 2NK      -0.132500
     10 C9           3.3750     2.4790     0.6010 ca         1 2NK       0.090400
     11 C10          2.5650     3.0360    -0.3820 ca         1 2NK       0.068100
     12 C11          1.9380     2.1350    -1.2370 ca         1 2NK       0.090400
     13 C12          2.0890     0.7720    -1.1350 ca         1 2NK      -0.132500
     14 F1           3.9930     3.3170     1.4430 f          1 2NK      -0.135400
     15 C13          0.1810    -0.6960     0.9600 ca         1 2NK      -0.075000
     16 C14         -1.1460    -0.3300     1.0080 ca         1 2NK      -0.189000
     17 C15         -2.1110    -0.9670     0.2080 ca         1 2NK       0.176600
     18 C16         -1.6670    -2.0060    -0.6190 ca         1 2NK      -0.189000
     19 C17         -0.3320    -2.3790    -0.6460 ca         1 2NK      -0.075000
     20 O1           2.4360     4.3680    -0.4500 oh         1 2NK      -0.467100
     21 F2           1.1550     2.6490    -2.2010 f          1 2NK      -0.135400
     22 N2          -3.4430    -0.5800     0.2740 nh         1 2NK      -0.651000
     23 C18         -3.7270     0.8500     0.2630 c6         1 2NK       0.199300
     24 C19         -5.1500     1.1270     0.7010 c6         1 2NK       0.155800
     25 N3          -6.0930     0.4060    -0.1260 n3         1 2NK      -0.712600
     26 C20         -5.8250    -1.0130    -0.0370 c6         1 2NK       0.155800
     27 C21         -4.4140    -1.3360    -0.4920 c6         1 2NK       0.199300
     28 C22         -7.4590     0.7160     0.2280 c3         1 2NK       0.151100
     29 H1           5.2300    -1.0180    -0.0760 h4         1 2NK       0.022100
     30 H2           3.9690    -4.9150     0.1530 h4         1 2NK       0.021100
     31 H3           1.6060    -4.2360     0.1970 ha         1 2NK       0.145000
     32 H4           4.1800     0.7440     1.5350 ha         1 2NK       0.162000
     33 H5           1.5730     0.1270    -1.8340 ha         1 2NK       0.162000
     34 H6           0.8820    -0.1830     1.6060 ha         1 2NK       0.133000
     35 H7          -1.4360     0.4510     1.6990 ha         1 2NK       0.134500
     36 H8          -2.3520    -2.5250    -1.2750 ha         1 2NK       0.134500
     37 H9          -0.0330    -3.1760    -1.3160 ha         1 2NK       0.133000
     38 H10          1.8390     4.6220    -1.1630 ho         1 2NK       0.441000
     39 H11         -3.0550     1.3740     0.9390 h1         1 2NK       0.046200
     40 H12         -3.5650     1.2620    -0.7440 h1         1 2NK       0.046200
     41 H13         -5.2590     0.8650     1.7680 h1         1 2NK       0.040950
     42 H14         -5.3350     2.2000     0.6120 h1         1 2NK       0.040950
     43 H16         -5.9700    -1.3900     0.9910 h1         1 2NK       0.040950
     44 H17         -6.5250    -1.5540    -0.6790 h1         1 2NK       0.040950
     45 H18         -4.3220    -1.1400    -1.5710 h1         1 2NK       0.046200
     46 H19         -4.2500    -2.4030    -0.3380 h1         1 2NK       0.046200
     47 H20         -7.6380     1.7860     0.1170 h1         1 2NK       0.033033
     48 H21         -8.1460     0.1920    -0.4370 h1         1 2NK       0.033033
     49 H22         -7.7120     0.4370     1.2620 h1         1 2NK       0.033033
@<TRIPOS>BOND
     1     1     2 ar  
     2     1     6 2   
     3     1    29 1   
     4     2     3 ar  
     5     3     4 ar  
     6     3    30 1   
     7     4     5 ar  
     8     4    31 1   
     9     5     6 1   
    10     5     8 1   
    11     6     7 1   
    12     7     9 1   
    13     7    13 2   
    14     8    15 ar  
    15     8    19 ar  
    16     9    10 ar  
    17     9    32 1   
    18    10    11 ar  
    19    10    14 1   
    20    11    12 ar  
    21    11    20 1   
    22    12    13 ar  
    23    12    21 1   
    24    13    33 1   
    25    15    16 ar  
    26    15    34 1   
    27    16    17 ar  
    28    16    35 1   
    29    17    18 ar  
    30    17    22 1   
    31    18    19 ar  
    32    18    36 1   
    33    19    37 1   
    34    20    38 1   
    35    22    23 1   
    36    22    27 1   
    37    23    24 1   
    38    23    39 1   
    39    23    40 1   
    40    24    25 1   
    41    24    41 1   
    42    24    42 1   
    43    25    26 1   
    44    25    28 1   
    45    26    27 1   
    46    26    43 1   
    47    26    44 1   
    48    27    45 1   
    49    27    46 1   
    50    28    47 1   
    51    28    48 1   
    52    28    49 1   
@<TRIPOS>SUBSTRUCTURE
     1 2NK         1 TEMP              0 ****  ****    0 ROOT
