@<TRIPOS>MOLECULE
2NL
   34    35     1     0     0
SMALL
bcc


@<TRIPOS>ATOM
      1 C1          -4.8070     1.1070     0.0450 c          1 2NL       0.664100
      2 C2          -4.1160    -0.2470    -0.0100 c3         1 2NL       0.054400
      3 C3          -1.8970    -1.0680    -0.0750 ca         1 2NL       0.167100
      4 C7           0.4240    -1.7300    -0.0460 ca         1 2NL       0.211600
      5 C8          -0.5420    -0.7330    -0.1190 ca         1 2NL      -0.185000
      6 C9           2.5300    -0.3620    -0.1720 ca         1 2NL       0.696200
      7 C10          3.9310    -0.4770    -0.0760 ca         1 2NL      -0.314300
      8 C11          4.6730     0.6720    -0.1920 ca         1 2NL       0.101400
      9 C12          4.0560     1.9040    -0.3970 ca         1 2NL      -0.294300
     10 C13          2.6790     1.8940    -0.4720 ca         1 2NL       0.461200
     11 CL           6.3930     0.5890    -0.0810 cl         1 2NL      -0.098400
     12 N2           1.9270     0.8030    -0.3660 nb         1 2NL      -0.726000
     13 N1           1.7940    -1.5090    -0.0590 nu         1 2NL      -0.745300
     14 C6           0.0150    -3.0700     0.0630 ca         1 2NL      -0.229000
     15 C5          -1.3280    -3.3790     0.0990 ca         1 2NL      -0.061000
     16 C4          -2.3070    -2.3910     0.0320 ca         1 2NL      -0.253000
     17 O1          -2.7410    -0.0160    -0.1460 os         1 2NL      -0.286900
     18 O           -4.2120     2.1360     0.3170 o          1 2NL      -0.564100
     19 N           -6.1220     1.0530    -0.1920 ns         1 2NL      -0.582900
     20 C           -6.9780     2.2110    -0.0860 c3         1 2NL       0.097300
     21 H1          -4.3450    -0.7820     0.9210 h1         1 2NL       0.047200
     22 H2          -4.5120    -0.8470    -0.8370 h1         1 2NL       0.047200
     23 H3          -0.2600     0.3040    -0.2080 ha         1 2NL       0.188000
     24 H4           4.4010    -1.4370     0.0890 ha         1 2NL       0.153000
     25 H5           4.6190     2.8210    -0.4930 ha         1 2NL       0.160000
     26 H6           2.1460     2.8240    -0.6310 h4         1 2NL       0.027100
     27 H7           2.3460    -2.3440     0.0590 hn         1 2NL       0.440800
     28 H8           0.7540    -3.8600     0.1180 ha         1 2NL       0.128000
     29 H9          -1.6290    -4.4150     0.1830 ha         1 2NL       0.128000
     30 H10         -3.3500    -2.6730     0.0590 ha         1 2NL       0.132000
     31 H11         -6.5430     0.1710    -0.4340 hn         1 2NL       0.313500
     32 H12         -7.9990     1.9010    -0.2870 h1         1 2NL       0.041700
     33 H13         -6.9420     2.6470     0.9130 h1         1 2NL       0.041700
     34 H14         -6.7050     2.9820    -0.8070 h1         1 2NL       0.041700
@<TRIPOS>BOND
     1     1     2 1   
     2     1    18 2   
     3     1    19 1   
     4     2    17 1   
     5     2    21 1   
     6     2    22 1   
     7     3     5 ar  
     8     3    16 ar  
     9     3    17 1   
    10     4     5 ar  
    11     4    13 1   
    12     4    14 ar  
    13     5    23 1   
    14     6     7 ar  
    15     6    12 ar  
    16     6    13 1   
    17     7     8 ar  
    18     7    24 1   
    19     8     9 ar  
    20     8    11 1   
    21     9    10 ar  
    22     9    25 1   
    23    10    12 ar  
    24    10    26 1   
    25    13    27 1   
    26    14    15 ar  
    27    14    28 1   
    28    15    16 ar  
    29    15    29 1   
    30    16    30 1   
    31    19    20 1   
    32    19    31 1   
    33    20    32 1   
    34    20    33 1   
    35    20    34 1   
@<TRIPOS>SUBSTRUCTURE
     1 2NL         1 TEMP              0 ****  ****    0 ROOT
