@<TRIPOS>MOLECULE
2NL
   34    35     1     0     0
SMALL
No Charge or Current Charge


@<TRIPOS>ATOM
      1 C1          -4.9590     1.1840     0.0930 c          1 2NL       0.597100
      2 C2          -4.1740    -0.1440    -0.0300 c3         1 2NL       0.077600
      3 C3          -1.8500    -0.9960    -0.0110 ca         1 2NL       0.167100
      4 C7           0.4780    -1.7210     0.0230 ca         1 2NL       0.350000
      5 C8          -0.4850    -0.7010     0.1020 ca         1 2NL      -0.167000
      6 C9           2.6690    -0.4010    -0.0860 ca         1 2NL       0.630900
      7 C10          3.9900    -0.4080     0.3650 ca         1 2NL      -0.231000
      8 C11          4.8000     0.6920     0.0730 ca         1 2NL       0.193000
      9 C12          4.2580     1.7470    -0.6660 ca         1 2NL      -0.211000
     10 C13          2.9240     1.6560    -1.0850 ca         1 2NL       0.395900
     11 Cl           6.4690     0.7460     0.6210 cl         1 2NL      -0.190000
     12 N2           2.1380     0.5940    -0.8040 nb         1 2NL      -0.726000
     13 N1           1.8460    -1.4790     0.1530 nu         1 2NL      -0.938900
     14 C6           0.0570    -3.0500    -0.1410 ca         1 2NL      -0.211000
     15 C5          -1.3080    -3.3580    -0.2570 ca         1 2NL      -0.043000
     16 C4          -2.2640    -2.3320    -0.1950 ca         1 2NL      -0.235000
     17 O1          -2.7440     0.0520     0.0720 os         1 2NL      -0.310100
     18 O           -4.4300     2.2770     0.2600 o          1 2NL      -0.564100
     19 N           -6.3310     1.0540     0.0020 ns         1 2NL      -0.515900
     20 C           -7.2740     2.1730     0.0900 c3         1 2NL       0.097300
     21 H1          -4.5300    -0.8120     0.7640 h1         1 2NL       0.047200
     22 H2          -4.4340    -0.5920    -0.9970 h1         1 2NL       0.047200
     23 H3          -0.1830     0.3260     0.2640 ha         1 2NL       0.170000
     24 H4           4.3800    -1.2450     0.9340 ha         1 2NL       0.135000
     25 H5           4.8530     2.6200    -0.9150 ha         1 2NL       0.142000
     26 H6           2.4700     2.4570    -1.6670 h4         1 2NL       0.027100
     27 H7           2.3760    -2.3050     0.4160 hn         1 2NL       0.496000
     28 H8           0.7890    -3.8510    -0.1900 ha         1 2NL       0.110000
     29 H9          -1.6240    -4.3910    -0.3920 ha         1 2NL       0.110000
     30 H10         -3.3140    -2.5930    -0.2850 ha         1 2NL       0.114000
     31 H11         -6.6990     0.1190    -0.1360 hn         1 2NL       0.313500
     32 H12         -8.3000     1.7970    -0.0130 h1         1 2NL       0.041700
     33 H13         -7.1670     2.6710     1.0630 h1         1 2NL       0.041700
     34 H14         -7.0710     2.8930    -0.7130 h1         1 2NL       0.041700
@<TRIPOS>BOND
     1     1     2 1   
     2     1    18 2   
     3     1    19 1   
     4     2    17 1   
     5     2    21 1   
     6     2    22 1   
     7     3     5 ar  
     8     3    16 ar  
     9     3    17 1   
    10     4     5 ar  
    11     4    13 1   
    12     4    14 ar  
    13     5    23 1   
    14     6     7 ar  
    15     6    12 ar  
    16     6    13 1   
    17     7     8 ar  
    18     7    24 1   
    19     8     9 ar  
    20     8    11 1   
    21     9    10 ar  
    22     9    25 1   
    23    10    12 ar  
    24    10    26 1   
    25    13    27 1   
    26    14    15 ar  
    27    14    28 1   
    28    15    16 ar  
    29    15    29 1   
    30    16    30 1   
    31    19    20 1   
    32    19    31 1   
    33    20    32 1   
    34    20    33 1   
    35    20    34 1   
@<TRIPOS>SUBSTRUCTURE
     1 2NL         1 TEMP              0 ****  ****    0 ROOT
