@<TRIPOS>MOLECULE
2NM
   26    27     1     0     0
SMALL
abcg2


@<TRIPOS>ATOM
      1 C1           3.6480     0.1570     0.0110 ca         1 2NM       0.137100
      2 C2           3.9440    -1.2050    -0.0140 ca         1 2NM      -0.190000
      3 C3           2.9000    -2.1230    -0.0110 ca         1 2NM      -0.076000
      4 C7          -0.1120     0.1060     0.0540 cc         1 2NM       0.300500
      5 C8          -1.2770    -0.6560    -0.1680 cc         1 2NM      -0.139000
      6 C9          -2.3000     0.2490    -0.0500 cd         1 2NM      -0.282300
      7 C10         -3.7670     0.0450    -0.1270 c3         1 2NM       0.390300
      8 F2          -4.3830     1.1020    -0.6660 f          1 2NM      -0.105667
      9 F           -4.0580    -1.0260    -0.8670 f          1 2NM      -0.105667
     10 F1          -4.3120    -0.1480     1.0800 f          1 2NM      -0.105667
     11 N           -1.7380     1.4400     0.2270 na         1 2NM       0.034800
     12 N1          -0.4240     1.3730     0.2880 nd         1 2NM      -0.484800
     13 C5           1.2820    -0.3470     0.0320 ca         1 2NM      -0.086500
     14 C4           1.5800    -1.7110     0.0130 ca         1 2NM      -0.133000
     15 C6           2.3190     0.5770     0.0340 ca         1 2NM      -0.119000
     16 O            4.5740     1.1340     0.0130 os         1 2NM      -0.340100
     17 C            5.9380     0.7720    -0.0570 c3         1 2NM       0.148900
     18 H1           4.9640    -1.5630    -0.0410 ha         1 2NM       0.118000
     19 H2           3.1300    -3.1800    -0.0240 ha         1 2NM       0.112000
     20 H3          -1.3570    -1.7050    -0.3990 ha         1 2NM       0.160000
     21 H4          -2.1970     2.3280     0.3680 hn         1 2NM       0.389000
     22 H5           0.7890    -2.4490     0.0250 ha         1 2NM       0.115000
     23 H6           2.1060     1.6390     0.0480 ha         1 2NM       0.142000
     24 H7           6.2490     0.1800     0.8080 h1         1 2NM       0.040700
     25 H8           6.1690     0.2130    -0.9680 h1         1 2NM       0.040700
     26 H9           6.5030     1.7010    -0.0650 h1         1 2NM       0.040700
@<TRIPOS>BOND
     1     1     2 ar  
     2     1    15 ar  
     3     1    16 1   
     4     2     3 ar  
     5     2    18 1   
     6     3    14 ar  
     7     3    19 1   
     8     4     5 1   
     9     4    12 2   
    10     4    13 1   
    11     5     6 2   
    12     5    20 1   
    13     6     7 1   
    14     6    11 1   
    15     7     8 1   
    16     7     9 1   
    17     7    10 1   
    18    11    12 1   
    19    11    21 1   
    20    13    14 ar  
    21    13    15 ar  
    22    14    22 1   
    23    15    23 1   
    24    16    17 1   
    25    17    24 1   
    26    17    25 1   
    27    17    26 1   
@<TRIPOS>SUBSTRUCTURE
     1 2NM         1 TEMP              0 ****  ****    0 ROOT
