@<TRIPOS>MOLECULE
2NM
   26    27     1     0     0
SMALL
No Charge or Current Charge


@<TRIPOS>ATOM
      1 C1           3.6780     0.1620     0.0170 ca         1 2NM       0.137100
      2 C2           3.9400    -1.2160    -0.1230 ca         1 2NM      -0.190000
      3 C3           2.8730    -2.1220    -0.2170 ca         1 2NM      -0.076000
      4 C7          -0.1300     0.2140     0.0130 cc         1 2NM       0.300500
      5 C8          -1.2880    -0.5840    -0.0700 cc         1 2NM      -0.139000
      6 C9          -2.3690     0.2430     0.0110 cd         1 2NM      -0.282300
      7 C10         -3.8510    -0.0580    -0.0230 c3         1 2NM       0.390300
      8 F2          -4.4640     0.5740    -1.0490 f          1 2NM      -0.105667
      9 F           -4.0970    -1.3800    -0.1660 f          1 2NM      -0.105667
     10 F1          -4.4650     0.3390     1.1140 f          1 2NM      -0.105667
     11 N           -1.8160     1.5240     0.1430 na         1 2NM       0.034800
     12 N1          -0.4220     1.4980     0.1430 nd         1 2NM      -0.484800
     13 C5           1.2600    -0.2850    -0.0340 ca         1 2NM      -0.086500
     14 C4           1.5460    -1.6630    -0.1730 ca         1 2NM      -0.133000
     15 C6           2.3490     0.6150     0.0600 ca         1 2NM      -0.119000
     16 O            4.6830     1.1030     0.1140 os         1 2NM      -0.340100
     17 C            6.0770     0.7440     0.0810 c3         1 2NM       0.148900
     18 H1           4.9560    -1.6000    -0.1590 ha         1 2NM       0.118000
     19 H2           3.0740    -3.1870    -0.3250 ha         1 2NM       0.112000
     20 H3          -1.3100    -1.6630    -0.1800 ha         1 2NM       0.160000
     21 H4          -2.3300     2.4020     0.2310 hn         1 2NM       0.389000
     22 H5           0.7480    -2.3950    -0.2500 ha         1 2NM       0.115000
     23 H6           2.1720     1.6820     0.1680 ha         1 2NM       0.142000
     24 H7           6.3260     0.0690     0.9100 h1         1 2NM       0.040700
     25 H8           6.3290     0.2490    -0.8650 h1         1 2NM       0.040700
     26 H9           6.7020     1.6400     0.1730 h1         1 2NM       0.040700
@<TRIPOS>BOND
     1     1     2 ar  
     2     1    15 ar  
     3     1    16 1   
     4     2     3 ar  
     5     2    18 1   
     6     3    14 ar  
     7     3    19 1   
     8     4     5 1   
     9     4    12 2   
    10     4    13 1   
    11     5     6 2   
    12     5    20 1   
    13     6     7 1   
    14     6    11 1   
    15     7     8 1   
    16     7     9 1   
    17     7    10 1   
    18    11    12 1   
    19    11    21 1   
    20    13    14 ar  
    21    13    15 ar  
    22    14    22 1   
    23    15    23 1   
    24    16    17 1   
    25    17    24 1   
    26    17    25 1   
    27    17    26 1   
@<TRIPOS>SUBSTRUCTURE
     1 2NM         1 TEMP              0 ****  ****    0 ROOT
