@<TRIPOS>MOLECULE
2NP
   24    23     1     0     0
SMALL
No Charge or Current Charge


@<TRIPOS>ATOM
      1 C1          -0.5230    -0.0130     3.6670 c          1 2NP       0.723000
      2 O11          0.1120    -0.8730     4.2690 o          1 2NP      -0.749000
      3 O12         -1.5740     0.4530     4.0900 o          1 2NP      -0.749000
      4 C2           0.0890     0.5920     2.3310 c3         1 2NP       0.023500
      5 N2           1.4500     1.2330     2.4450 n8         1 2NP      -0.999200
      6 C3           0.0890    -0.4670     1.1950 c3         1 2NP      -0.097400
      7 C4           0.3400     0.1060    -0.2230 c3         1 2NP      -0.070400
      8 C5           0.2640    -0.9660    -1.3330 c3         1 2NP      -0.023200
      9 C6           0.5330    -0.3960    -2.7270 ce         1 2NP      -0.159400
     10 C8           1.8190    -0.2350    -3.1420 c2         1 2NP      -0.375000
     11 C7          -0.6630    -0.0450    -3.6080 c          1 2NP       0.703200
     12 O71         -0.4550     0.3910    -4.7320 o          1 2NP      -0.736500
     13 O72         -1.7950    -0.1990    -3.1730 o          1 2NP      -0.736500
     14 H21         -0.6050     1.3860     2.0200 h1         1 2NP       0.047700
     15 HN21         2.1080     0.5350     2.8110 hn         1 2NP       0.374000
     16 HN22         1.8020     1.4330     1.5020 hn         1 2NP       0.374000
     17 H31          0.8350    -1.2420     1.4150 hc         1 2NP       0.034200
     18 H32         -0.8870    -0.9690     1.1950 hc         1 2NP       0.034200
     19 H41         -0.4010     0.8880    -0.4320 hc         1 2NP       0.034700
     20 H42          1.3270     0.5830    -0.2610 hc         1 2NP       0.034700
     21 H51          1.0010    -1.7470    -1.1090 hc         1 2NP       0.023700
     22 H52         -0.7090    -1.4680    -1.2830 hc         1 2NP       0.023700
     23 H81          2.0620     0.1610    -4.1280 ha         1 2NP       0.132500
     24 H82          2.6630    -0.4950    -2.5020 ha         1 2NP       0.132500
@<TRIPOS>BOND
     1     1     2 1   
     2     1     3 1   
     3     1     4 1   
     4     4     5 1   
     5     4     6 1   
     6     4    14 1   
     7     5    15 1   
     8     5    16 1   
     9     6     7 1   
    10     6    17 1   
    11     6    18 1   
    12     7     8 1   
    13     7    19 1   
    14     7    20 1   
    15     8     9 1   
    16     8    21 1   
    17     8    22 1   
    18     9    10 2   
    19     9    11 1   
    20    10    23 1   
    21    10    24 1   
    22    11    12 1   
    23    11    13 1   
@<TRIPOS>SUBSTRUCTURE
     1 2NP         1 TEMP              0 ****  ****    0 ROOT
