@<TRIPOS>MOLECULE
2NP
   24    23     1     0     0
SMALL
abcg2


@<TRIPOS>ATOM
      1 C1          -0.4010    -0.0520     3.5880 c          1 2NP       0.723000
      2 O11          0.5080    -0.3650     4.3830 o          1 2NP      -0.749000
      3 O12         -1.6190    -0.2820     3.7280 o          1 2NP      -0.749000
      4 C2           0.0200     0.6280     2.2680 c3         1 2NP       0.023500
      5 N2           1.2670     1.3560     2.4450 n8         1 2NP      -0.999200
      6 C3           0.0470    -0.4430     1.1650 c3         1 2NP      -0.097400
      7 C4           0.3220     0.1020    -0.2320 c3         1 2NP      -0.070400
      8 C5           0.3270    -0.9940    -1.2980 c3         1 2NP      -0.023200
      9 C6           0.5810    -0.4600    -2.6790 ce         1 2NP      -0.159400
     10 C8           1.7640    -0.6140    -3.2720 c2         1 2NP      -0.375000
     11 C7          -0.5530     0.2750    -3.3910 c          1 2NP       0.703200
     12 O71         -0.2850     0.8490    -4.4650 o          1 2NP      -0.736500
     13 O72         -1.6710     0.2330    -2.8360 o          1 2NP      -0.736500
     14 H21         -0.7590     1.3530     2.0020 h1         1 2NP       0.047700
     15 HN21         1.9440     0.7310     2.8640 hn         1 2NP       0.374000
     16 HN22         1.6430     1.6340     1.5470 hn         1 2NP       0.374000
     17 H31          0.8040    -1.1960     1.4170 hc         1 2NP       0.034200
     18 H32         -0.9170    -0.9630     1.1560 hc         1 2NP       0.034200
     19 H41         -0.4320     0.8520    -0.4830 hc         1 2NP       0.034700
     20 H42          1.2910     0.6110    -0.2550 hc         1 2NP       0.034700
     21 H51          1.0970    -1.7290    -1.0440 hc         1 2NP       0.023700
     22 H52         -0.6310    -1.5200    -1.2720 hc         1 2NP       0.023700
     23 H81          1.9620    -0.2110    -4.2570 ha         1 2NP       0.132500
     24 H82          2.5750    -1.1500    -2.7930 ha         1 2NP       0.132500
@<TRIPOS>BOND
     1     1     2 1   
     2     1     3 1   
     3     1     4 1   
     4     4     5 1   
     5     4     6 1   
     6     4    14 1   
     7     5    15 1   
     8     5    16 1   
     9     6     7 1   
    10     6    17 1   
    11     6    18 1   
    12     7     8 1   
    13     7    19 1   
    14     7    20 1   
    15     8     9 1   
    16     8    21 1   
    17     8    22 1   
    18     9    10 2   
    19     9    11 1   
    20    10    23 1   
    21    10    24 1   
    22    11    12 1   
    23    11    13 1   
@<TRIPOS>SUBSTRUCTURE
     1 2NP         1 TEMP              0 ****  ****    0 ROOT
