@<TRIPOS>MOLECULE
2NQ
   54    58     1     0     0
SMALL
No Charge or Current Charge


@<TRIPOS>ATOM
      1 N1           0.4940    -2.8460     1.3520 nb         1 2NQ      -0.650000
      2 N2          -3.6960     3.6560    -0.2850 nb         1 2NQ      -0.673000
      3 C1           1.1740    -0.7270    -0.3920 ca         1 2NQ      -0.037000
      4 C2           2.0740    -1.7960    -0.2110 ca         1 2NQ       0.198000
      5 C3           4.2480     0.7120    -0.3960 ca         1 2NQ      -0.335500
      6 C4           3.5800     1.9290    -0.6460 ca         1 2NQ       0.015500
      7 C5           3.6020     2.9470     0.3220 ca         1 2NQ      -0.173000
      8 C6           4.9580     1.5460     1.7780 ca         1 2NQ      -0.173000
      9 C7          -0.5660     1.7560    -0.0320 ca         1 2NQ      -0.085000
     10 C8          -2.8610     2.6010    -0.1500 ca         1 2NQ       0.288000
     11 C9          -2.4220     0.2120     0.1690 ca         1 2NQ      -0.063000
     12 C10         -4.7360     1.0640     0.0390 ca         1 2NQ       0.332000
     13 C11         -5.3720    -1.1250    -1.0140 c6         1 2NQ       0.151800
     14 C12         -5.5810    -2.6150    -0.6100 c6         1 2NQ       0.150100
     15 C13         -6.3840    -0.4680     1.1810 c6         1 2NQ       0.151800
     16 O1          -6.7110    -2.7510     0.2840 os         1 2NQ      -0.444000
     17 C14         -6.5500    -1.9840     1.5020 c6         1 2NQ       0.150100
     18 N3          -5.2950    -0.2270     0.1810 nh         1 2NQ      -0.790400
     19 C15         -3.3390     1.2790     0.0180 ca         1 2NQ      -0.097000
     20 C16         -5.5820     2.1670    -0.0990 ca         1 2NQ      -0.235000
     21 C17         -5.0270     3.4370    -0.2570 ca         1 2NQ       0.378900
     22 C18         -1.4730     2.8200    -0.1740 ca         1 2NQ      -0.087000
     23 C19         -1.0240     0.4300     0.1430 cp         1 2NQ      -0.056000
     24 C20         -0.0610    -0.7060     0.3040 cp         1 2NQ      -0.065000
     25 C21         -0.3430    -1.8010     1.1620 ca         1 2NQ       0.355900
     26 C22          1.6690    -2.8330     0.6790 ca         1 2NQ       0.415000
     27 Cl1          2.7160    -4.2180     0.9860 cl         1 2NQ      -0.164000
     28 N4           3.3220    -1.8350    -0.8760 nu         1 2NQ      -0.866100
     29 S1           4.2080    -0.6120    -1.6070 sy         1 2NQ       1.157600
     30 O2           3.4160    -0.2240    -2.7770 o          1 2NQ      -0.527000
     31 O3           5.5350    -1.2180    -1.7190 o          1 2NQ      -0.527000
     32 C23          4.2890     2.7520     1.5280 ca         1 2NQ       0.235000
     33 F1           4.3070     3.7340     2.4560 f          1 2NQ      -0.165000
     34 C24          4.9410     0.5210     0.8170 ca         1 2NQ       0.015500
     35 H1           1.4100     0.0770    -1.0790 ha         1 2NQ       0.154000
     36 H2           3.0450     2.0920    -1.5810 ha         1 2NQ       0.140000
     37 H3           3.0890     3.8870     0.1380 ha         1 2NQ       0.140500
     38 H4           5.4880     1.4060     2.7170 ha         1 2NQ       0.140500
     39 H5           0.4990     1.9720    -0.0390 ha         1 2NQ       0.130000
     40 H6          -2.7930    -0.8010     0.3000 ha         1 2NQ       0.125000
     41 H8          -6.2040    -0.8140    -1.6630 h1         1 2NQ       0.051950
     42 H9          -5.7560    -3.2240    -1.5080 h1         1 2NQ       0.054950
     43 H10         -4.6780    -2.9960    -0.1110 h1         1 2NQ       0.054950
     44 H11         -7.3410    -0.0840     0.7980 h1         1 2NQ       0.051950
     45 H12         -6.1650     0.0660     2.1170 h1         1 2NQ       0.051950
     46 H13         -5.6670    -2.3490     2.0450 h1         1 2NQ       0.054950
     47 H14         -7.4300    -2.1350     2.1430 h1         1 2NQ       0.054950
     48 H15         -6.6600     2.0480    -0.0980 ha         1 2NQ       0.125000
     49 H16         -5.6660     4.3120    -0.3720 h4         1 2NQ       0.019100
     50 H17         -1.0960     3.8310    -0.3000 ha         1 2NQ       0.138000
     51 H18         -1.2730    -1.8320     1.7290 h4         1 2NQ       0.035100
     52 H19          3.9770    -2.5710    -0.6400 hn         1 2NQ       0.501000
     53 H20          5.4590    -0.4160     1.0200 ha         1 2NQ       0.140000
     54 H7          -4.4500    -1.0500    -1.6100 h1         1 2NQ       0.051950
@<TRIPOS>BOND
     1     1    25 ar  
     2     1    26 ar  
     3     2    10 ar  
     4     2    21 ar  
     5     3     4 ar  
     6     3    24 ar  
     7     3    35 1   
     8     4    26 ar  
     9     4    28 1   
    10     5     6 ar  
    11     5    29 1   
    12     5    34 ar  
    13     6     7 ar  
    14     6    36 1   
    15     7    32 ar  
    16     7    37 1   
    17     8    32 ar  
    18     8    34 ar  
    19     8    38 1   
    20     9    22 ar  
    21     9    23 ar  
    22     9    39 1   
    23    10    19 ar  
    24    10    22 ar  
    25    11    19 ar  
    26    11    23 ar  
    27    11    40 1   
    28    12    18 1   
    29    12    19 ar  
    30    12    20 ar  
    31    13    14 1   
    32    13    18 1   
    33    13    41 1   
    34    13    54 1   
    35    14    16 1   
    36    14    42 1   
    37    14    43 1   
    38    15    17 1   
    39    15    18 1   
    40    15    44 1   
    41    15    45 1   
    42    16    17 1   
    43    17    46 1   
    44    17    47 1   
    45    20    21 ar  
    46    20    48 1   
    47    21    49 1   
    48    22    50 1   
    49    23    24 1   
    50    24    25 ar  
    51    25    51 1   
    52    26    27 1   
    53    28    29 1   
    54    28    52 1   
    55    29    30 2   
    56    29    31 2   
    57    32    33 1   
    58    34    53 1   
@<TRIPOS>SUBSTRUCTURE
     1 2NQ         1 TEMP              0 ****  ****    0 ROOT
