@<TRIPOS>MOLECULE
2NQ
   54    58     1     0     0
SMALL
abcg2


@<TRIPOS>ATOM
      1 N1           0.7270    -1.1450     1.5600 nb         1 2NQ      -0.650000
      2 N2          -4.7230     3.3050    -1.7650 nb         1 2NQ      -0.673000
      3 C1           0.7770    -0.0230    -0.9540 ca         1 2NQ      -0.037000
      4 C2           1.8590    -0.7630    -0.5040 ca         1 2NQ       0.198000
      5 C3           4.7940     0.4550     0.1290 ca         1 2NQ      -0.335500
      6 C4           4.1640     1.2530     1.0770 ca         1 2NQ       0.015500
      7 C5           4.6630     1.2990     2.3670 ca         1 2NQ      -0.173000
      8 C6           6.4290    -0.2390     1.7330 ca         1 2NQ      -0.173000
      9 C7          -1.3200     2.1000    -1.3830 ca         1 2NQ      -0.085000
     10 C8          -3.7080     2.4810    -1.4130 ca         1 2NQ       0.288000
     11 C9          -2.7740     0.5550    -0.2520 ca         1 2NQ      -0.063000
     12 C10         -5.2420     0.9020    -0.3550 ca         1 2NQ       0.332000
     13 C11         -5.1800    -1.5250    -0.4410 c6         1 2NQ       0.151800
     14 C12         -5.1270    -2.6930     0.5230 c6         1 2NQ       0.150100
     15 C13         -6.7260    -0.4360     1.0270 c6         1 2NQ       0.151800
     16 O1          -6.3290    -2.8190     1.2480 os         1 2NQ      -0.444000
     17 C14         -6.6240    -1.6350     1.9530 c6         1 2NQ       0.150100
     18 N3          -5.4740    -0.2970     0.3010 nh         1 2NQ      -0.790400
     19 C15         -3.9010     1.2840    -0.6800 ca         1 2NQ      -0.097000
     20 C16         -6.2430     1.7900    -0.6830 ca         1 2NQ      -0.235000
     21 C17         -5.9250     2.9670    -1.3810 ca         1 2NQ       0.378900
     22 C18         -2.3920     2.8520    -1.7710 ca         1 2NQ      -0.087000
     23 C19         -1.4990     0.9410    -0.5920 cp         1 2NQ      -0.056000
     24 C20         -0.3320     0.1690    -0.1360 cp         1 2NQ      -0.065000
     25 C21         -0.2920    -0.4180     1.1270 ca         1 2NQ       0.355900
     26 C22          1.7640    -1.3040     0.7800 ca         1 2NQ       0.415000
     27 CL1          3.0660    -2.2620     1.3990 cl         1 2NQ      -0.164000
     28 N4           2.9740    -0.9510    -1.3380 nu         1 2NQ      -0.866100
     29 S1           4.0780     0.2980    -1.4750 sy         1 2NQ       1.157600
     30 O2           3.3090     1.4960    -1.7480 o          1 2NQ      -0.527000
     31 O3           5.0820    -0.1760    -2.4060 o          1 2NQ      -0.527000
     32 C23          5.7840     0.5480     2.6700 ca         1 2NQ       0.235000
     33 F1           6.2660     0.5890     3.9140 f          1 2NQ      -0.165000
     34 C24          5.9220    -0.2910     0.4480 ca         1 2NQ       0.015500
     35 H1           0.7970     0.3700    -1.9610 ha         1 2NQ       0.154000
     36 H2           3.2920     1.8410     0.8250 ha         1 2NQ       0.140000
     37 H3           4.1880     1.9110     3.1210 ha         1 2NQ       0.140500
     38 H4           7.3110    -0.8050     2.0040 ha         1 2NQ       0.140500
     39 H5          -0.3200     2.4200    -1.6480 ha         1 2NQ       0.130000
     40 H6          -2.9210    -0.3190     0.3690 ha         1 2NQ       0.125000
     41 H8          -5.9560    -1.7000    -1.1990 h1         1 2NQ       0.051950
     42 H9          -4.9780    -3.6220    -0.0290 h1         1 2NQ       0.054950
     43 H10         -4.2760    -2.5620     1.2070 h1         1 2NQ       0.054950
     44 H11         -7.5820    -0.5600     0.3490 h1         1 2NQ       0.051950
     45 H12         -6.9020     0.4570     1.6280 h1         1 2NQ       0.051950
     46 H13         -5.8550    -1.4360     2.7120 h1         1 2NQ       0.054950
     47 H14         -7.5750    -1.7860     2.4650 h1         1 2NQ       0.054950
     48 H15         -7.2800     1.5870    -0.4550 ha         1 2NQ       0.125000
     49 H16         -6.7310     3.6410    -1.6530 h4         1 2NQ       0.019100
     50 H17         -2.2520     3.7600    -2.3420 ha         1 2NQ       0.138000
     51 H18         -1.1110    -0.2850     1.8240 h4         1 2NQ       0.035100
     52 H19          3.4240    -1.8600    -1.2780 hn         1 2NQ       0.501000
     53 H20          6.4100    -0.9120    -0.2910 ha         1 2NQ       0.140000
     54 H7          -4.2300    -1.4470    -0.9670 h1         1 2NQ       0.051950
@<TRIPOS>BOND
     1     1    25 ar  
     2     1    26 ar  
     3     2    10 ar  
     4     2    21 ar  
     5     3     4 ar  
     6     3    24 ar  
     7     3    35 1   
     8     4    26 ar  
     9     4    28 1   
    10     5     6 ar  
    11     5    29 1   
    12     5    34 ar  
    13     6     7 ar  
    14     6    36 1   
    15     7    32 ar  
    16     7    37 1   
    17     8    32 ar  
    18     8    34 ar  
    19     8    38 1   
    20     9    22 ar  
    21     9    23 ar  
    22     9    39 1   
    23    10    19 ar  
    24    10    22 ar  
    25    11    19 ar  
    26    11    23 ar  
    27    11    40 1   
    28    12    18 1   
    29    12    19 ar  
    30    12    20 ar  
    31    13    14 1   
    32    13    18 1   
    33    13    41 1   
    34    13    54 1   
    35    14    16 1   
    36    14    42 1   
    37    14    43 1   
    38    15    17 1   
    39    15    18 1   
    40    15    44 1   
    41    15    45 1   
    42    16    17 1   
    43    17    46 1   
    44    17    47 1   
    45    20    21 ar  
    46    20    48 1   
    47    21    49 1   
    48    22    50 1   
    49    23    24 1   
    50    24    25 ar  
    51    25    51 1   
    52    26    27 1   
    53    28    29 1   
    54    28    52 1   
    55    29    30 2   
    56    29    31 2   
    57    32    33 1   
    58    34    53 1   
@<TRIPOS>SUBSTRUCTURE
     1 2NQ         1 TEMP              0 ****  ****    0 ROOT
