@<TRIPOS>MOLECULE
2NR
   52    55     1     0     0
SMALL
No Charge or Current Charge


@<TRIPOS>ATOM
      1 F            3.1690     1.8410    -1.5800 f          1 2NR      -0.168000
      2 C8           4.0460     1.6810    -0.5630 ca         1 2NR       0.227000
      3 C9           4.8200     2.7830    -0.1720 ca         1 2NR      -0.195000
      4 C10          5.7620     2.6540     0.8590 ca         1 2NR      -0.039000
      5 C11          5.9290     1.4150     1.4990 ca         1 2NR      -0.223000
      6 C12          5.1510     0.3040     1.1060 ca         1 2NR       0.184100
      7 O2           5.2690    -0.9290     1.7190 os         1 2NR      -0.329100
      8 C13          6.1980    -1.1710     2.7900 c3         1 2NR       0.145900
      9 C7           4.1910     0.4190     0.0660 cp         1 2NR      -0.120000
     10 C6           3.3600    -0.7490    -0.3600 cp         1 2NR       0.010000
     11 C5           3.9370    -1.9680    -0.8080 ca         1 2NR      -0.080000
     12 C4           3.1260    -3.0580    -1.2120 ca         1 2NR      -0.120000
     13 C3           1.7160    -2.9620    -1.1770 ca         1 2NR      -0.063000
     14 C2           1.1420    -1.7640    -0.7310 ca         1 2NR       0.090400
     15 C1           1.9510    -0.7240    -0.3500 ca         1 2NR       0.037100
     16 N1          -0.2140    -1.4410    -0.6050 nc         1 2NR      -0.641100
     17 C14         -0.1140    -0.1990    -0.1180 cd         1 2NR       0.774500
     18 O1           1.1500     0.2800     0.0390 os         1 2NR      -0.304700
     19 N2          -1.1570     0.6280     0.1120 nu         1 2NR      -0.892200
     20 C15         -2.5350     0.4800     0.1320 ca         1 2NR       0.386000
     21 C20         -3.1540    -0.7640     0.2870 ca         1 2NR      -0.274500
     22 C19         -4.5610    -0.8790     0.3150 ca         1 2NR       0.187600
     23 O3          -5.1520    -2.1230     0.4640 os         1 2NR      -0.322600
     24 C21         -4.4020    -3.3460     0.5750 c3         1 2NR       0.144900
     25 C18         -5.3620     0.2970     0.1930 ca         1 2NR      -0.003900
     26 O4          -6.7590     0.3150     0.2060 os         1 2NR      -0.324100
     27 C22         -7.6010    -0.8460     0.3270 c3         1 2NR       0.146900
     28 C17         -4.7190     1.5500     0.0550 ca         1 2NR       0.187600
     29 C16         -3.3130     1.6320     0.0300 ca         1 2NR      -0.274500
     30 O5          -5.5090     2.6820    -0.0550 os         1 2NR      -0.322600
     31 C23         -4.9610     4.0040    -0.2010 c3         1 2NR       0.144900
     32 H1           4.6910     3.7380    -0.6750 ha         1 2NR       0.136000
     33 H2           6.3620     3.5100     1.1610 ha         1 2NR       0.117000
     34 H3           6.6620     1.3390     2.2950 ha         1 2NR       0.123000
     35 H4           5.9820    -0.5220     3.6480 h1         1 2NR       0.044367
     36 H5           6.1260    -2.2130     3.1260 h1         1 2NR       0.044367
     37 H6           7.2290    -0.9910     2.4600 h1         1 2NR       0.044367
     38 H7           5.0190    -2.0640    -0.8460 ha         1 2NR       0.122000
     39 H8           3.5940    -3.9790    -1.5530 ha         1 2NR       0.117000
     40 H9           1.0900    -3.7960    -1.4850 ha         1 2NR       0.131000
     41 H10         -0.8280     1.5750     0.2500 hn         1 2NR       0.515000
     42 H11         -2.5320    -1.6400     0.4010 ha         1 2NR       0.141500
     43 H12         -3.7850    -3.5080    -0.3180 h1         1 2NR       0.043200
     44 H13         -3.7520    -3.3280     1.4580 h1         1 2NR       0.043200
     45 H14         -5.0840    -4.2000     0.6740 h1         1 2NR       0.043200
     46 H15         -7.4290    -1.5440    -0.5020 h1         1 2NR       0.031700
     47 H16         -7.4240    -1.3620     1.2790 h1         1 2NR       0.031700
     48 H17         -8.6560    -0.5480     0.3000 h1         1 2NR       0.031700
     49 H18         -2.8140     2.5880    -0.0790 ha         1 2NR       0.141500
     50 H19         -4.3550     4.0770    -1.1140 h1         1 2NR       0.043200
     51 H20         -5.7680     4.7440    -0.2700 h1         1 2NR       0.043200
     52 H21         -4.3340     4.2650     0.6610 h1         1 2NR       0.043200
@<TRIPOS>BOND
     1     1     2 1   
     2     2     3 ar  
     3     2     9 ar  
     4     3     4 ar  
     5     3    32 1   
     6     4     5 ar  
     7     4    33 1   
     8     5     6 ar  
     9     5    34 1   
    10     6     7 1   
    11     6     9 ar  
    12     7     8 1   
    13     8    35 1   
    14     8    36 1   
    15     8    37 1   
    16     9    10 1   
    17    10    11 ar  
    18    10    15 ar  
    19    11    12 ar  
    20    11    38 1   
    21    12    13 ar  
    22    12    39 1   
    23    13    14 ar  
    24    13    40 1   
    25    14    15 ar  
    26    14    16 1   
    27    15    18 1   
    28    16    17 2   
    29    17    18 1   
    30    17    19 1   
    31    19    20 1   
    32    19    41 1   
    33    20    21 ar  
    34    20    29 ar  
    35    21    22 ar  
    36    21    42 1   
    37    22    23 1   
    38    22    25 ar  
    39    23    24 1   
    40    24    43 1   
    41    24    44 1   
    42    24    45 1   
    43    25    26 1   
    44    25    28 ar  
    45    26    27 1   
    46    27    46 1   
    47    27    47 1   
    48    27    48 1   
    49    28    29 ar  
    50    28    30 1   
    51    29    49 1   
    52    30    31 1   
    53    31    50 1   
    54    31    51 1   
    55    31    52 1   
@<TRIPOS>SUBSTRUCTURE
     1 2NR         1 TEMP              0 ****  ****    0 ROOT
