@<TRIPOS>MOLECULE
2NR
   52    55     1     0     0
SMALL
abcg2


@<TRIPOS>ATOM
      1 F            3.1850     1.2610    -1.8950 f          1 2NR      -0.168000
      2 C8           4.0370     1.3710    -0.8660 ca         1 2NR       0.227000
      3 C9           4.7830     2.5270    -0.7470 ca         1 2NR      -0.195000
      4 C10          5.6690     2.6110     0.3140 ca         1 2NR      -0.039000
      5 C11          5.8020     1.5740     1.2270 ca         1 2NR      -0.223000
      6 C12          5.0310     0.4220     1.0840 ca         1 2NR       0.184100
      7 O2           5.0780    -0.6220     1.9220 os         1 2NR      -0.329100
      8 C13          5.9970    -0.5930     2.9970 c3         1 2NR       0.145900
      9 C7           4.1280     0.3050     0.0130 cp         1 2NR      -0.120000
     10 C6           3.3140    -0.9090    -0.1850 cp         1 2NR       0.010000
     11 C5           3.8740    -2.1650    -0.4420 ca         1 2NR      -0.080000
     12 C4           3.0830    -3.2920    -0.6530 ca         1 2NR      -0.120000
     13 C3           1.6930    -3.2330    -0.6200 ca         1 2NR      -0.063000
     14 C2           1.1210    -1.9970    -0.3650 ca         1 2NR       0.090400
     15 C1           1.9370    -0.8900    -0.1550 ca         1 2NR       0.037100
     16 N1          -0.2020    -1.6010    -0.2680 nc         1 2NR      -0.641100
     17 C14         -0.1330    -0.3360    -0.0170 cd         1 2NR       0.774500
     18 O1           1.1180     0.1740     0.0750 os         1 2NR      -0.304700
     19 N2          -1.1150     0.5620     0.1660 nu         1 2NR      -0.892200
     20 C15         -2.4930     0.3710     0.0580 ca         1 2NR       0.386000
     21 C20         -3.0640    -0.8650    -0.2240 ca         1 2NR      -0.274500
     22 C19         -4.4520    -0.9570    -0.3280 ca         1 2NR       0.187600
     23 O3          -5.1000    -2.1020    -0.5970 os         1 2NR      -0.322600
     24 C21         -4.3420    -3.2760    -0.8140 c3         1 2NR       0.144900
     25 C18         -5.2610     0.1670    -0.1630 ca         1 2NR      -0.003900
     26 O4          -6.6110     0.0710    -0.3060 os         1 2NR      -0.324100
     27 C22         -7.3100    -0.2080     0.8990 c3         1 2NR       0.146900
     28 C17         -4.6680     1.3970     0.1360 ca         1 2NR       0.187600
     29 C16         -3.2870     1.5030     0.2430 ca         1 2NR      -0.274500
     30 O5          -5.5140     2.4280     0.2910 os         1 2NR      -0.322600
     31 C23         -4.9820     3.6970     0.6140 c3         1 2NR       0.144900
     32 H1           4.6750     3.3290    -1.4640 ha         1 2NR       0.136000
     33 H2           6.2720     3.5010     0.4360 ha         1 2NR       0.117000
     34 H3           6.5050     1.6810     2.0420 ha         1 2NR       0.123000
     35 H4           5.7920     0.2280     3.6880 h1         1 2NR       0.044367
     36 H5           5.8780    -1.5350     3.5270 h1         1 2NR       0.044367
     37 H6           7.0290    -0.5140     2.6460 h1         1 2NR       0.044367
     38 H7           4.9500    -2.2580    -0.4920 ha         1 2NR       0.122000
     39 H8           3.5670    -4.2390    -0.8550 ha         1 2NR       0.117000
     40 H9           1.0860    -4.1120    -0.7900 ha         1 2NR       0.131000
     41 H10         -0.8140     1.5030     0.3730 hn         1 2NR       0.515000
     42 H11         -2.4330    -1.7290    -0.3550 ha         1 2NR       0.141500
     43 H12         -3.6590    -3.1700    -1.6610 h1         1 2NR       0.043200
     44 H13         -3.7670    -3.5620     0.0700 h1         1 2NR       0.043200
     45 H14         -5.0560    -4.0640    -1.0370 h1         1 2NR       0.043200
     46 H15         -7.0030    -1.1620     1.3350 h1         1 2NR       0.031700
     47 H16         -7.1690     0.5800     1.6420 h1         1 2NR       0.031700
     48 H17         -8.3680    -0.2650     0.6500 h1         1 2NR       0.031700
     49 H18         -2.8150     2.4510     0.4660 ha         1 2NR       0.141500
     50 H19         -4.3210     4.0750    -0.1710 h1         1 2NR       0.043200
     51 H20         -5.8300     4.3700     0.7110 h1         1 2NR       0.043200
     52 H21         -4.4350     3.6810     1.5600 h1         1 2NR       0.043200
@<TRIPOS>BOND
     1     1     2 1   
     2     2     3 ar  
     3     2     9 ar  
     4     3     4 ar  
     5     3    32 1   
     6     4     5 ar  
     7     4    33 1   
     8     5     6 ar  
     9     5    34 1   
    10     6     7 1   
    11     6     9 ar  
    12     7     8 1   
    13     8    35 1   
    14     8    36 1   
    15     8    37 1   
    16     9    10 1   
    17    10    11 ar  
    18    10    15 ar  
    19    11    12 ar  
    20    11    38 1   
    21    12    13 ar  
    22    12    39 1   
    23    13    14 ar  
    24    13    40 1   
    25    14    15 ar  
    26    14    16 1   
    27    15    18 1   
    28    16    17 2   
    29    17    18 1   
    30    17    19 1   
    31    19    20 1   
    32    19    41 1   
    33    20    21 ar  
    34    20    29 ar  
    35    21    22 ar  
    36    21    42 1   
    37    22    23 1   
    38    22    25 ar  
    39    23    24 1   
    40    24    43 1   
    41    24    44 1   
    42    24    45 1   
    43    25    26 1   
    44    25    28 ar  
    45    26    27 1   
    46    27    46 1   
    47    27    47 1   
    48    27    48 1   
    49    28    29 ar  
    50    28    30 1   
    51    29    49 1   
    52    30    31 1   
    53    31    50 1   
    54    31    51 1   
    55    31    52 1   
@<TRIPOS>SUBSTRUCTURE
     1 2NR         1 TEMP              0 ****  ****    0 ROOT
