@<TRIPOS>MOLECULE
2NS
   51    55     1     0     0
SMALL
No Charge or Current Charge


@<TRIPOS>ATOM
      1 C23          4.5670     3.7420     1.5590 c3         1 2NS       0.144400
      2 O4           5.1630     2.5500     1.0170 os         1 2NS      -0.321600
      3 C17          4.4130     1.5000     0.5110 ca         1 2NS       0.188100
      4 C16          3.0050     1.5450     0.5000 ca         1 2NS      -0.274500
      5 C18          5.1000     0.3720     0.0020 ca         1 2NS      -0.001900
      6 O3           6.4950     0.4180     0.0570 os         1 2NS      -0.324100
      7 C22          7.3760    -0.6240    -0.3980 c3         1 2NS       0.145900
      8 C19          4.3410    -0.7160    -0.5290 ca         1 2NS       0.188100
      9 O2           4.9750    -1.8340    -1.0450 os         1 2NS      -0.321600
     10 C21          4.2650    -2.9690    -1.5760 c3         1 2NS       0.144400
     11 C20          2.9320    -0.6410    -0.5270 ca         1 2NS      -0.274500
     12 C15          2.2730     0.4730    -0.0050 ca         1 2NS       0.381000
     13 N4           0.8940     0.5580    -0.0150 nu         1 2NS      -0.892200
     14 C14         -0.0860    -0.3350     0.2530 cc         1 2NS       0.772500
     15 O1          -1.3930     0.1090     0.2510 os         1 2NS      -0.312700
     16 N3           0.1310    -1.6150     0.5600 nd         1 2NS      -0.639100
     17 C2          -1.1580    -2.0530     0.7690 ca         1 2NS       0.095400
     18 C3          -1.5930    -3.3310     1.1420 ca         1 2NS      -0.066000
     19 C4          -2.9780    -3.5330     1.3250 ca         1 2NS      -0.112000
     20 C5          -3.8890    -2.4670     1.1320 ca         1 2NS      -0.097000
     21 C6          -3.4450    -1.1750     0.7410 cp         1 2NS      -0.001000
     22 C1          -2.0470    -1.0340     0.5780 ca         1 2NS       0.012100
     23 C7          -4.4160    -0.0520     0.5520 cp         1 2NS      -0.041000
     24 C12         -4.4460     0.7990    -0.5730 ca         1 2NS      -0.059200
     25 N1          -3.6220     0.7040    -1.6460 na         1 2NS      -0.310600
     26 C13         -4.0190     1.7130    -2.5250 cc         1 2NS       0.411700
     27 N2          -5.0720     2.4090    -2.0280 nd         1 2NS      -0.573100
     28 C11         -5.3230     1.8060    -0.7960 ca         1 2NS       0.061400
     29 C10         -6.3130     2.0880     0.1540 ca         1 2NS      -0.038000
     30 C9          -6.3600     1.2830     1.3180 ca         1 2NS      -0.139000
     31 C8          -5.4310     0.2260     1.5100 ca         1 2NS      -0.076000
     32 H1           5.3470     4.4340     1.9000 h1         1 2NS       0.044033
     33 H2           3.9640     4.2570     0.8010 h1         1 2NS       0.044033
     34 H3           3.9280     3.5030     2.4190 h1         1 2NS       0.044033
     35 H4           2.4690     2.4030     0.8890 ha         1 2NS       0.141000
     36 H5           7.1980    -1.5570     0.1510 h1         1 2NS       0.033033
     37 H6           7.2480    -0.8050    -1.4730 h1         1 2NS       0.033033
     38 H7           8.4210    -0.3320    -0.2310 h1         1 2NS       0.033033
     39 H8           4.9740    -3.7330    -1.9160 h1         1 2NS       0.044033
     40 H9           3.6220    -3.4200    -0.8100 h1         1 2NS       0.044033
     41 H10          3.6460    -2.6760    -2.4330 h1         1 2NS       0.044033
     42 H11          2.3300    -1.4420    -0.9380 ha         1 2NS       0.141000
     43 H12          0.5220     1.5000     0.0250 hn         1 2NS       0.516000
     44 H13         -0.8820    -4.1390     1.2940 ha         1 2NS       0.134000
     45 H14         -3.3460    -4.5140     1.6200 ha         1 2NS       0.120000
     46 H15         -4.9520    -2.6460     1.2790 ha         1 2NS       0.125000
     47 H16         -2.8510     0.0640    -1.7760 hn         1 2NS       0.362000
     48 H17         -3.5240     1.8850    -3.4730 h5         1 2NS       0.061800
     49 H19         -7.0270     2.8930    -0.0040 ha         1 2NS       0.131000
     50 H20         -7.1200     1.4740     2.0720 ha         1 2NS       0.117000
     51 H21         -5.4930    -0.3770     2.4130 ha         1 2NS       0.116000
@<TRIPOS>BOND
     1     1     2 1   
     2     1    32 1   
     3     1    33 1   
     4     1    34 1   
     5     2     3 1   
     6     3     4 ar  
     7     3     5 ar  
     8     4    12 ar  
     9     4    35 1   
    10     5     6 1   
    11     5     8 ar  
    12     6     7 1   
    13     7    36 1   
    14     7    37 1   
    15     7    38 1   
    16     8     9 1   
    17     8    11 ar  
    18     9    10 1   
    19    10    39 1   
    20    10    40 1   
    21    10    41 1   
    22    11    12 ar  
    23    11    42 1   
    24    12    13 1   
    25    13    14 1   
    26    13    43 1   
    27    14    15 1   
    28    14    16 2   
    29    15    22 1   
    30    16    17 1   
    31    17    18 ar  
    32    17    22 ar  
    33    18    19 ar  
    34    18    44 1   
    35    19    20 ar  
    36    19    45 1   
    37    20    21 ar  
    38    20    46 1   
    39    21    22 ar  
    40    21    23 1   
    41    23    24 ar  
    42    23    31 ar  
    43    24    25 1   
    44    24    28 ar  
    45    25    26 1   
    46    25    47 1   
    47    26    27 2   
    48    26    48 1   
    49    27    28 1   
    50    28    29 ar  
    51    29    30 ar  
    52    29    49 1   
    53    30    31 ar  
    54    30    50 1   
    55    31    51 1   
@<TRIPOS>SUBSTRUCTURE
     1 2NS         1 TEMP              0 ****  ****    0 ROOT
