@<TRIPOS>MOLECULE
2NS
   51    55     1     0     0
SMALL
abcg2


@<TRIPOS>ATOM
      1 C23          4.6050     3.7640     0.2190 c3         1 2NS       0.144400
      2 O4           5.1850     2.5050    -0.0610 os         1 2NS      -0.321600
      3 C17          4.3840     1.4290    -0.1180 ca         1 2NS       0.188100
      4 C16          3.0070     1.4740     0.0670 ca         1 2NS      -0.274500
      5 C18          5.0200     0.2150    -0.3910 ca         1 2NS      -0.001900
      6 O3           6.3630     0.1770    -0.6060 os         1 2NS      -0.324100
      7 C22          7.1350    -0.0350     0.5690 c3         1 2NS       0.145900
      8 C19          4.2610    -0.9540    -0.4510 ca         1 2NS       0.188100
      9 O2           4.9490    -2.0780    -0.7020 os         1 2NS      -0.321600
     10 C21          4.2420    -3.2970    -0.8140 c3         1 2NS       0.144400
     11 C20          2.8790    -0.9230    -0.2650 ca         1 2NS      -0.274500
     12 C15          2.2640     0.2970    -0.0080 ca         1 2NS       0.381000
     13 N4           0.8870     0.4250     0.1820 nu         1 2NS      -0.892200
     14 C14         -0.0510    -0.5350     0.1560 cc         1 2NS       0.772500
     15 O1          -1.3170    -0.0880     0.3320 os         1 2NS      -0.312700
     16 N3           0.0700    -1.8110    -0.0100 nd         1 2NS      -0.639100
     17 C2          -1.2290    -2.2840     0.0530 ca         1 2NS       0.095400
     18 C3          -1.7420    -3.5690    -0.0350 ca         1 2NS      -0.066000
     19 C4          -3.1190    -3.7100     0.0960 ca         1 2NS      -0.112000
     20 C5          -3.9560    -2.6150     0.3000 ca         1 2NS      -0.097000
     21 C6          -3.4600    -1.3090     0.3870 cp         1 2NS      -0.001000
     22 C1          -2.0880    -1.2110     0.2610 ca         1 2NS       0.012100
     23 C7          -4.3370    -0.1500     0.6200 cp         1 2NS      -0.041000
     24 C12         -4.2840     1.0110    -0.1570 ca         1 2NS      -0.059200
     25 N1          -3.5280     1.3720    -1.2400 na         1 2NS      -0.310600
     26 C13         -3.9230     2.6150    -1.6070 cc         1 2NS       0.411700
     27 N2          -4.8730     3.0990    -0.8600 nd         1 2NS      -0.573100
     28 C11         -5.1300     2.1120     0.0630 ca         1 2NS       0.061400
     29 C10         -6.0730     2.0770     1.0900 ca         1 2NS      -0.038000
     30 C9          -6.1430     0.9310     1.8600 ca         1 2NS      -0.139000
     31 C8          -5.2940    -0.1580     1.6280 ca         1 2NS      -0.076000
     32 H1           5.4210     4.4820     0.2330 h1         1 2NS       0.044033
     33 H2           3.8860     4.0630    -0.5480 h1         1 2NS       0.044033
     34 H3           4.1090     3.7760     1.1930 h1         1 2NS       0.044033
     35 H4           2.5020     2.4090     0.2740 ha         1 2NS       0.141000
     36 H5           6.9950     0.7680     1.2960 h1         1 2NS       0.033033
     37 H6           6.8950    -0.9880     1.0460 h1         1 2NS       0.033033
     38 H7           8.1810    -0.0520     0.2670 h1         1 2NS       0.033033
     39 H8           4.9830    -4.0630    -1.0270 h1         1 2NS       0.044033
     40 H9           3.7250    -3.5580     0.1140 h1         1 2NS       0.044033
     41 H10          3.5150    -3.2750    -1.6290 h1         1 2NS       0.044033
     42 H11          2.2850    -1.8220    -0.3110 ha         1 2NS       0.141000
     43 H12          0.5490     1.3610     0.3530 hn         1 2NS       0.516000
     44 H13         -1.0990    -4.4240    -0.1960 ha         1 2NS       0.134000
     45 H14         -3.5580    -4.6970     0.0310 ha         1 2NS       0.120000
     46 H15         -5.0240    -2.7700     0.3780 ha         1 2NS       0.125000
     47 H16         -2.8250     0.8270    -1.7110 hn         1 2NS       0.362000
     48 H17         -3.4680     3.1200    -2.4450 h5         1 2NS       0.061800
     49 H19         -6.7290     2.9180     1.2700 ha         1 2NS       0.131000
     50 H20         -6.8620     0.8700     2.6660 ha         1 2NS       0.117000
     51 H21         -5.3720    -1.0300     2.2650 ha         1 2NS       0.116000
@<TRIPOS>BOND
     1     1     2 1   
     2     1    32 1   
     3     1    33 1   
     4     1    34 1   
     5     2     3 1   
     6     3     4 ar  
     7     3     5 ar  
     8     4    12 ar  
     9     4    35 1   
    10     5     6 1   
    11     5     8 ar  
    12     6     7 1   
    13     7    36 1   
    14     7    37 1   
    15     7    38 1   
    16     8     9 1   
    17     8    11 ar  
    18     9    10 1   
    19    10    39 1   
    20    10    40 1   
    21    10    41 1   
    22    11    12 ar  
    23    11    42 1   
    24    12    13 1   
    25    13    14 1   
    26    13    43 1   
    27    14    15 1   
    28    14    16 2   
    29    15    22 1   
    30    16    17 1   
    31    17    18 ar  
    32    17    22 ar  
    33    18    19 ar  
    34    18    44 1   
    35    19    20 ar  
    36    19    45 1   
    37    20    21 ar  
    38    20    46 1   
    39    21    22 ar  
    40    21    23 1   
    41    23    24 ar  
    42    23    31 ar  
    43    24    25 1   
    44    24    28 ar  
    45    25    26 1   
    46    25    47 1   
    47    26    27 2   
    48    26    48 1   
    49    27    28 1   
    50    28    29 ar  
    51    29    30 ar  
    52    29    49 1   
    53    30    31 ar  
    54    30    50 1   
    55    31    51 1   
@<TRIPOS>SUBSTRUCTURE
     1 2NS         1 TEMP              0 ****  ****    0 ROOT
