@<TRIPOS>MOLECULE
2NU
   26    27     1     0     0
SMALL
No Charge or Current Charge


@<TRIPOS>ATOM
      1 C1         127.9880   -66.9260    14.4580 c3         1 2NU       0.092300
      2 C2        -125.6580   -65.9340    14.4600 c          1 2NU       0.581100
      3 C3         126.2560   -64.5430    14.2130 c3         1 2NU      -0.000400
      4 C4        -125.9600   -64.6840    11.6790 cc         1 2NU      -0.118000
      5 C5         126.7880   -64.3200    10.6570 cd         1 2NU      -0.156900
      6 C6        -127.9590   -63.7860    11.2340 cd         1 2NU       0.278900
      7 C7         126.0020   -68.4320    14.5850 cx         1 2NU       0.037700
      8 C8        -126.4670   -69.5700    13.7050 cx         1 2NU      -0.127400
      9 C9         125.0600   -69.0450    13.5750 cx         1 2NU      -0.127400
     10 N1        -126.5120   -67.0660    14.4580 n          1 2NU      -0.385800
     11 N2         126.6860   -64.3540    12.8210 na         1 2NU       0.119800
     12 N3        -127.9200   -63.7930    12.5540 nc         1 2NU      -0.525800
     13 O1         124.4500   -66.0660    14.6210 o          1 2NU      -0.584100
     14 H2        -128.3030   -66.2220    15.2380 h1         1 2NU       0.048700
     15 H3         128.3280   -66.5640    13.4790 h1         1 2NU       0.048700
     16 H1        -128.4680   -67.8930    14.6590 h1         1 2NU       0.048700
     17 H5         125.4900   -63.7970    14.4480 h1         1 2NU       0.095700
     18 H4        -127.1010   -64.3890    14.8920 h1         1 2NU       0.095700
     19 H6         124.9720   -65.1280    11.6950 h4         1 2NU       0.173000
     20 H7        -128.8330   -63.3940    10.7280 h4         1 2NU       0.052100
     21 H8         125.8240   -68.6390    15.6420 h1         1 2NU       0.089700
     22 H10       -127.1630   -69.3450    12.9000 hc         1 2NU       0.080200
     23 H9         126.6060   -70.5420    14.1700 hc         1 2NU       0.080200
     24 H12       -124.2480   -69.6610    13.9540 hc         1 2NU       0.080200
     25 H11        124.8160   -68.4620    12.6900 hc         1 2NU       0.080200
     26 Br1       -126.4390   -64.4920     8.8130 br         1 2NU      -0.057100
@<TRIPOS>BOND
     1     1    10 1   
     2     1    14 1   
     3     1    15 1   
     4     1    16 1   
     5     2     3 1   
     6     2    10 1   
     7     2    13 2   
     8     3    11 1   
     9     3    17 1   
    10     3    18 1   
    11     4     5 2   
    12     4    11 1   
    13     4    19 1   
    14     5     6 1   
    15     5    26 1   
    16     6    12 2   
    17     6    20 1   
    18     7     8 1   
    19     7     9 1   
    20     7    10 1   
    21     7    21 1   
    22     8     9 1   
    23     8    22 1   
    24     8    23 1   
    25     9    24 1   
    26     9    25 1   
    27    11    12 1   
@<TRIPOS>SUBSTRUCTURE
     1 2NU         1 TEMP              0 ****  ****    0 ROOT
