@<TRIPOS>MOLECULE
2NU
   26    27     1     0     0
SMALL
abcg2


@<TRIPOS>ATOM
      1 C1        -127.9340   -66.8260    14.1190 c3         1 2NU       0.092300
      2 C2        -125.6430   -66.0020    14.6100 c          1 2NU       0.581100
      3 C3        -126.0960   -64.5800    14.2700 c3         1 2NU      -0.000400
      4 C4        -126.1540   -64.9400    11.7850 cc         1 2NU      -0.118000
      5 C5        -127.0330   -64.5550    10.7950 cd         1 2NU      -0.156900
      6 C6        -128.0450   -63.8230    11.4400 cd         1 2NU       0.278900
      7 C7        -126.0530   -68.3720    14.5760 cx         1 2NU       0.037700
      8 C8        -126.3860   -69.3760    13.5110 cx         1 2NU      -0.127400
      9 C9        -124.9680   -68.9040    13.6930 cx         1 2NU      -0.127400
     10 N1        -126.5090   -67.0160    14.3950 n          1 2NU      -0.385800
     11 N2        -126.6590   -64.4460    12.9380 na         1 2NU       0.119800
     12 N3        -127.8080   -63.7640    12.7460 nc         1 2NU      -0.525800
     13 O1        -124.5080   -66.1680    15.0540 o          1 2NU      -0.584100
     14 H2        -128.2810   -65.8730    14.5050 h1         1 2NU       0.048700
     15 H3        -128.1480   -66.8770    13.0500 h1         1 2NU       0.048700
     16 H1        -128.4840   -67.6180    14.6240 h1         1 2NU       0.048700
     17 H5        -125.2190   -63.9430    14.3700 h1         1 2NU       0.095700
     18 H4        -126.8550   -64.2380    14.9720 h1         1 2NU       0.095700
     19 H6        -125.2440   -65.5140    11.7480 h4         1 2NU       0.173000
     20 H7        -128.9160   -63.3550    11.0110 h4         1 2NU       0.052100
     21 H8        -126.0720   -68.7140    15.6050 h1         1 2NU       0.089700
     22 H10       -126.9190   -69.0190    12.6400 hc         1 2NU       0.080200
     23 H9        -126.6510   -70.3740    13.8320 hc         1 2NU       0.080200
     24 H12       -124.2460   -69.5750    14.1370 hc         1 2NU       0.080200
     25 H11       -124.5700   -68.2290    12.9470 hc         1 2NU       0.080200
     26 BR1       -126.8990   -64.9450     8.9560 br         1 2NU      -0.057100
@<TRIPOS>BOND
     1     1    10 1   
     2     1    14 1   
     3     1    15 1   
     4     1    16 1   
     5     2     3 1   
     6     2    10 1   
     7     2    13 2   
     8     3    11 1   
     9     3    17 1   
    10     3    18 1   
    11     4     5 2   
    12     4    11 1   
    13     4    19 1   
    14     5     6 1   
    15     5    26 1   
    16     6    12 2   
    17     6    20 1   
    18     7     8 1   
    19     7     9 1   
    20     7    10 1   
    21     7    21 1   
    22     8     9 1   
    23     8    22 1   
    24     8    23 1   
    25     9    24 1   
    26     9    25 1   
    27    11    12 1   
@<TRIPOS>SUBSTRUCTURE
     1 2NU         1 TEMP              0 ****  ****    0 ROOT
