@<TRIPOS>MOLECULE
2NV
   48    47     1     0     0
SMALL
abcg2


@<TRIPOS>ATOM
      1 N1           5.4070    -1.7050    -0.5390 n8         1 2NV      -0.967200
      2 C2           6.1580    -0.7830     0.3030 c3         1 2NV       0.155500
      3 C3           5.2050     0.0130     1.1780 c3         1 2NV       0.169600
      4 O4           4.3110     0.7530     0.3900 os         1 2NV      -0.424000
      5 C5           3.3850     1.4760     1.1590 c3         1 2NV       0.161600
      6 C6           2.4560     2.2450     0.2570 c3         1 2NV       0.163600
      7 O7           1.6870     1.3510    -0.5080 os         1 2NV      -0.428000
      8 C8           0.7430     2.0050    -1.3160 c3         1 2NV       0.162600
      9 C9           0.0050     1.0000    -2.1620 c3         1 2NV       0.161600
     10 O10         -0.7350     0.1290    -1.3440 os         1 2NV      -0.432000
     11 C11         -1.5090    -0.7760    -2.0890 c3         1 2NV       0.162600
     12 C12         -2.2330    -1.7200    -1.1640 c3         1 2NV       0.161600
     13 O13         -3.1350    -1.0060    -0.3590 os         1 2NV      -0.432000
     14 C14         -3.8900    -1.8430     0.4800 c3         1 2NV       0.161600
     15 C15         -4.7710    -1.0100     1.3760 c3         1 2NV       0.163600
     16 O16         -5.7130    -0.3110     0.6060 os         1 2NV      -0.447000
     17 C17         -6.5870     0.4690     1.3900 c3         1 2NV       0.161600
     18 C18         -7.5400     1.2160     0.4840 c3         1 2NV      -0.091100
     19 C2A          7.2010    -1.4660     1.1870 c3         1 2NV      -0.134100
     20 HN1          6.0560    -2.2420    -1.1020 hn         1 2NV       0.387000
     21 HN1A         4.9400    -2.3860     0.0510 hn         1 2NV       0.387000
     22 H2           6.6760    -0.0810    -0.3590 h1         1 2NV       0.071700
     23 H3           4.6590    -0.6790     1.8400 h1         1 2NV       0.015200
     24 H3A          5.7860     0.6770     1.8340 h1         1 2NV       0.015200
     25 H5           2.8030     0.8050     1.8080 h1         1 2NV       0.025200
     26 H5A          3.8900     2.1940     1.8210 h1         1 2NV       0.025200
     27 H6           1.8160     2.8770     0.8880 h1         1 2NV       0.025200
     28 H6A          3.0310     2.9220    -0.3910 h1         1 2NV       0.025200
     29 H8           0.0300     2.5780    -0.7050 h1         1 2NV       0.026200
     30 H8A          1.2280     2.7220    -1.9920 h1         1 2NV       0.026200
     31 H9          -0.6520     1.5540    -2.8460 h1         1 2NV       0.028200
     32 H9A          0.7160     0.4410    -2.7880 h1         1 2NV       0.028200
     33 H11         -2.2320    -0.2430    -2.7230 h1         1 2NV       0.027200
     34 H11A        -0.8810    -1.3780    -2.7600 h1         1 2NV       0.027200
     35 H12         -2.7540    -2.4640    -1.7830 h1         1 2NV       0.027200
     36 H12A        -1.5090    -2.2730    -0.5470 h1         1 2NV       0.027200
     37 H14         -4.5020    -2.5410    -0.1080 h1         1 2NV       0.026200
     38 H14A        -3.2380    -2.4530     1.1200 h1         1 2NV       0.026200
     39 H15         -5.2640    -1.6860     2.0890 h1         1 2NV       0.027200
     40 H15A        -4.1540    -0.3200     1.9690 h1         1 2NV       0.027200
     41 H17         -7.1490    -0.1670     2.0860 h1         1 2NV       0.016700
     42 H17A        -6.0180     1.1810     2.0050 h1         1 2NV       0.016700
     43 H18         -7.0060     1.8830    -0.1930 hc         1 2NV       0.042033
     44 H18A        -8.1420     0.5300    -0.1130 hc         1 2NV       0.042033
     45 H18B        -8.2200     1.8210     1.0830 hc         1 2NV       0.042033
     46 H2A          7.8970    -2.0450     0.5790 hc         1 2NV       0.037367
     47 H2AA         7.7860    -0.7460     1.7630 hc         1 2NV       0.037367
     48 H2AB         6.7230    -2.1520     1.8910 hc         1 2NV       0.037367
@<TRIPOS>BOND
     1     1     2 1   
     2     1    20 1   
     3     1    21 1   
     4     2     3 1   
     5     2    19 1   
     6     2    22 1   
     7     3     4 1   
     8     3    23 1   
     9     3    24 1   
    10     4     5 1   
    11     5     6 1   
    12     5    25 1   
    13     5    26 1   
    14     6     7 1   
    15     6    27 1   
    16     6    28 1   
    17     7     8 1   
    18     8     9 1   
    19     8    29 1   
    20     8    30 1   
    21     9    10 1   
    22     9    31 1   
    23     9    32 1   
    24    10    11 1   
    25    11    12 1   
    26    11    33 1   
    27    11    34 1   
    28    12    13 1   
    29    12    35 1   
    30    12    36 1   
    31    13    14 1   
    32    14    15 1   
    33    14    37 1   
    34    14    38 1   
    35    15    16 1   
    36    15    39 1   
    37    15    40 1   
    38    16    17 1   
    39    17    18 1   
    40    17    41 1   
    41    17    42 1   
    42    18    43 1   
    43    18    44 1   
    44    18    45 1   
    45    19    46 1   
    46    19    47 1   
    47    19    48 1   
@<TRIPOS>SUBSTRUCTURE
     1 2NV         1 TEMP              0 ****  ****    0 ROOT
