@<TRIPOS>MOLECULE
2NV
   48    47     1     0     0
SMALL
No Charge or Current Charge


@<TRIPOS>ATOM
      1 N1           6.1920    -1.3630    -1.2210 n8         1 2NV      -0.967200
      2 C2           6.7830    -0.5700    -0.1140 c3         1 2NV       0.155500
      3 C3           5.7620    -0.2340     1.0190 c3         1 2NV       0.169600
      4 O4           4.7240     0.6160     0.4930 os         1 2NV      -0.424000
      5 C5           3.7300     1.0080     1.4600 c3         1 2NV       0.161600
      6 C6           2.6810     1.9150     0.7720 c3         1 2NV       0.163600
      7 O7           1.8540     1.1100    -0.0910 os         1 2NV      -0.428000
      8 C8           0.8390     1.8460    -0.8020 c3         1 2NV       0.162600
      9 C9           0.0190     0.8640    -1.6720 c3         1 2NV       0.161600
     10 O10         -0.8160     0.0600    -0.8150 os         1 2NV      -0.432000
     11 C11         -1.6280    -0.9080    -1.5100 c3         1 2NV       0.162600
     12 C12         -2.4770    -1.6880    -0.4780 c3         1 2NV       0.161600
     13 O13         -3.5090    -0.8210     0.0340 os         1 2NV      -0.432000
     14 C14         -4.3670    -1.4310     1.0180 c3         1 2NV       0.161600
     15 C15         -5.4290    -0.4010     1.4720 c3         1 2NV       0.163600
     16 O16         -6.3790    -0.2000     0.4060 os         1 2NV      -0.447000
     17 C17         -7.4160     0.7470     0.7050 c3         1 2NV       0.161600
     18 C18         -8.3310     0.8400    -0.5260 c3         1 2NV      -0.091100
     19 C2A          8.0120    -1.3230     0.4320 c3         1 2NV      -0.134100
     20 HN1          6.9450    -1.6850    -1.8390 hn         1 2NV       0.387000
     21 HN1A         5.8030    -2.2310    -0.8380 hn         1 2NV       0.387000
     22 H2           7.1410     0.3820    -0.5330 h1         1 2NV       0.071700
     23 H3           5.3370    -1.1630     1.4210 h1         1 2NV       0.015200
     24 H3A          6.2890     0.2790     1.8340 h1         1 2NV       0.015200
     25 H5           3.2310     0.1300     1.8910 h1         1 2NV       0.025200
     26 H5A          4.1990     1.5700     2.2780 h1         1 2NV       0.025200
     27 H6           2.0660     2.3940     1.5450 h1         1 2NV       0.025200
     28 H6A          3.1920     2.7040     0.2050 h1         1 2NV       0.025200
     29 H8           0.1690     2.3670    -0.1050 h1         1 2NV       0.026200
     30 H8A          1.3030     2.5960    -1.4550 h1         1 2NV       0.026200
     31 H9          -0.6000     1.4430    -2.3700 h1         1 2NV       0.028200
     32 H9A          0.7010     0.2370    -2.2600 h1         1 2NV       0.028200
     33 H11         -2.2900    -0.4190    -2.2360 h1         1 2NV       0.027200
     34 H11A        -0.9900    -1.6180    -2.0520 h1         1 2NV       0.027200
     35 H12         -2.9260    -2.5580    -0.9750 h1         1 2NV       0.027200
     36 H12A        -1.8300    -2.0520     0.3300 h1         1 2NV       0.027200
     37 H14         -4.8680    -2.3190     0.6090 h1         1 2NV       0.026200
     38 H14A        -3.7800    -1.7430     1.8920 h1         1 2NV       0.026200
     39 H15         -5.9370    -0.7870     2.3650 h1         1 2NV       0.027200
     40 H15A        -4.9340     0.5420     1.7420 h1         1 2NV       0.027200
     41 H17         -8.0020     0.4210     1.5740 h1         1 2NV       0.016700
     42 H17A        -6.9900     1.7350     0.9210 h1         1 2NV       0.016700
     43 H18         -7.7670     1.1780    -1.4030 hc         1 2NV       0.042033
     44 H18A        -8.7790    -0.1350    -0.7500 hc         1 2NV       0.042033
     45 H18B        -9.1410     1.5560    -0.3420 hc         1 2NV       0.042033
     46 H2A          8.7420    -1.5140    -0.3650 hc         1 2NV       0.037367
     47 H2AA         8.5110    -0.7290     1.2070 hc         1 2NV       0.037367
     48 H2AB         7.7220    -2.2840     0.8740 hc         1 2NV       0.037367
@<TRIPOS>BOND
     1     1     2 1   
     2     1    20 1   
     3     1    21 1   
     4     2     3 1   
     5     2    19 1   
     6     2    22 1   
     7     3     4 1   
     8     3    23 1   
     9     3    24 1   
    10     4     5 1   
    11     5     6 1   
    12     5    25 1   
    13     5    26 1   
    14     6     7 1   
    15     6    27 1   
    16     6    28 1   
    17     7     8 1   
    18     8     9 1   
    19     8    29 1   
    20     8    30 1   
    21     9    10 1   
    22     9    31 1   
    23     9    32 1   
    24    10    11 1   
    25    11    12 1   
    26    11    33 1   
    27    11    34 1   
    28    12    13 1   
    29    12    35 1   
    30    12    36 1   
    31    13    14 1   
    32    14    15 1   
    33    14    37 1   
    34    14    38 1   
    35    15    16 1   
    36    15    39 1   
    37    15    40 1   
    38    16    17 1   
    39    17    18 1   
    40    17    41 1   
    41    17    42 1   
    42    18    43 1   
    43    18    44 1   
    44    18    45 1   
    45    19    46 1   
    46    19    47 1   
    47    19    48 1   
@<TRIPOS>SUBSTRUCTURE
     1 2NV         1 TEMP              0 ****  ****    0 ROOT
