@<TRIPOS>MOLECULE
2NW
   19    20     1     0     0
SMALL
No Charge or Current Charge


@<TRIPOS>ATOM
      1 Br          -2.7270    -0.0140    -0.1180 br         1 2NW      -0.102100
      2 CAI         -0.8230    -0.3110    -0.0670 ca         1 2NW      -0.206900
      3 CAG         -0.3360    -1.6210    -0.0270 ca         1 2NW       0.425900
      4 NAH          0.9810    -1.9160     0.0140 nb         1 2NW      -0.700000
      5 CAK          1.8760    -0.9040     0.0150 ca         1 2NW       0.310000
      6 CAE          3.2490    -1.2120     0.0560 ca         1 2NW      -0.093000
      7 CAC          4.2210    -0.1990     0.0560 ca         1 2NW      -0.089000
      8 CAD          3.8260     1.1450     0.0120 ca         1 2NW      -0.121000
      9 CAF          2.4620     1.4750    -0.0290 ca         1 2NW      -0.085000
     10 CAL          1.4770     0.4560    -0.0260 ca         1 2NW      -0.135000
     11 CAJ          0.0950     0.7450    -0.0660 ca         1 2NW       0.413000
     12 NAA         -0.3820     2.0320    -0.0990 nv         1 2NW      -1.095000
     13 H1          -1.0210    -2.4680    -0.0260 h4         1 2NW       0.029100
     14 H2           3.5610    -2.2520     0.0880 ha         1 2NW       0.134000
     15 H3           5.2780    -0.4570     0.0880 ha         1 2NW       0.118000
     16 H4           4.5770     1.9330     0.0090 ha         1 2NW       0.115000
     17 H5           2.1880     2.5260    -0.0670 ha         1 2NW       0.103000
     18 H6          -1.3780     2.1760     0.0570 hn         1 2NW       0.490500
     19 H7           0.2330     2.7960     0.1690 hn         1 2NW       0.490500
@<TRIPOS>BOND
     1     1     2 1   
     2     2     3 ar  
     3     2    11 ar  
     4     3     4 ar  
     5     3    13 1   
     6     4     5 ar  
     7     5     6 ar  
     8     5    10 ar  
     9     6     7 ar  
    10     6    14 1   
    11     7     8 ar  
    12     7    15 1   
    13     8     9 ar  
    14     8    16 1   
    15     9    10 ar  
    16     9    17 1   
    17    10    11 ar  
    18    11    12 1   
    19    12    18 1   
    20    12    19 1   
@<TRIPOS>SUBSTRUCTURE
     1 2NW         1 TEMP              0 ****  ****    0 ROOT
