@<TRIPOS>MOLECULE
2NW
   19    20     1     0     0
SMALL
bcc


@<TRIPOS>ATOM
      1 BR          -2.6650    -0.0920    -0.1100 br         1 2NW      -0.102100
      2 CAI         -0.7930    -0.3250    -0.0560 ca         1 2NW      -0.272200
      3 CAG         -0.2880    -1.6310    -0.0290 ca         1 2NW       0.491200
      4 NAH          0.9830    -1.9250     0.0100 nb         1 2NW      -0.700000
      5 CAK          1.8620    -0.8930     0.0180 ca         1 2NW       0.440600
      6 CAE          3.2400    -1.2020     0.0530 ca         1 2NW      -0.176300
      7 CAC          4.1840    -0.2110     0.0530 ca         1 2NW      -0.107000
      8 CAD          3.7900     1.1380     0.0150 ca         1 2NW      -0.139000
      9 CAF          2.4610     1.4680    -0.0170 ca         1 2NW      -0.103000
     10 CAL          1.4660     0.4660    -0.0110 ca         1 2NW      -0.200300
     11 CAJ          0.0600     0.7720    -0.0410 ca         1 2NW       0.274600
     12 NAA         -0.3690     2.0440    -0.0840 nv         1 2NW      -0.846200
     13 H1          -0.9830    -2.4650    -0.0380 h4         1 2NW       0.029100
     14 H2           3.5250    -2.2470     0.0790 ha         1 2NW       0.152000
     15 H3           5.2360    -0.4630     0.0800 ha         1 2NW       0.136000
     16 H4           4.5380     1.9190     0.0090 ha         1 2NW       0.133000
     17 H5           2.1960     2.5160    -0.0530 ha         1 2NW       0.121000
     18 H6          -1.3440     2.2600     0.0390 hn         1 2NW       0.435300
     19 H7           0.2570     2.8010     0.1240 hn         1 2NW       0.435300
@<TRIPOS>BOND
     1     1     2 1   
     2     2     3 ar  
     3     2    11 ar  
     4     3     4 ar  
     5     3    13 1   
     6     4     5 ar  
     7     5     6 ar  
     8     5    10 ar  
     9     6     7 ar  
    10     6    14 1   
    11     7     8 ar  
    12     7    15 1   
    13     8     9 ar  
    14     8    16 1   
    15     9    10 ar  
    16     9    17 1   
    17    10    11 ar  
    18    11    12 1   
    19    12    18 1   
    20    12    19 1   
@<TRIPOS>SUBSTRUCTURE
     1 2NW         1 TEMP              0 ****  ****    0 ROOT
