@<TRIPOS>MOLECULE
2NX
   27    27     1     0     0
SMALL
bcc


@<TRIPOS>ATOM
      1 CAA          2.3230     2.5220     0.0900 c3         1 2NX       0.171700
      2 OAK          2.4930     1.2090    -0.4570 os         1 2NX      -0.547200
      3 PAO          2.1240    -0.0580     0.4230 p5         1 2NX       1.577500
      4 OAL          2.5230    -1.1710    -0.6350 os         1 2NX      -0.547200
      5 CAB          2.3240    -2.5520    -0.3160 c3         1 2NX       0.171700
      6 OAD          2.7170    -0.1530     1.7720 o          1 2NX      -0.812300
      7 NAJ          0.4380    -0.0800     0.5740 ns         1 2NX      -0.728900
      8 CAM         -0.4530     0.0040    -0.4660 c          1 2NX       0.699700
      9 OAC         -0.0800     0.0480    -1.6200 o          1 2NX      -0.562100
     10 CAN         -1.8980     0.0320    -0.1020 ca         1 2NX      -0.163600
     11 CAH         -2.8230    -0.3020    -1.0900 ca         1 2NX      -0.085500
     12 CAF         -4.1800    -0.2840    -0.8130 ca         1 2NX      -0.138000
     13 CAE         -4.6280     0.0850     0.4500 ca         1 2NX      -0.101000
     14 CAG         -3.7130     0.4340     1.4330 ca         1 2NX      -0.138000
     15 CAI         -2.3540     0.4050     1.1620 ca         1 2NX      -0.085500
     16 H1           2.5930     3.2230    -0.6930 h1         1 2NX       0.044200
     17 H2           1.2870     2.6990     0.3820 h1         1 2NX       0.044200
     18 H3           2.9720     2.6770     0.9520 h1         1 2NX       0.044200
     19 H4           2.9530    -2.8570     0.5190 h1         1 2NX       0.044200
     20 H5           1.2800    -2.7590    -0.0760 h1         1 2NX       0.044200
     21 H6           2.6010    -3.1200    -1.1990 h1         1 2NX       0.044200
     22 H7           0.0830    -0.2100     1.5110 hn         1 2NX       0.332500
     23 H8          -2.4800    -0.5880    -2.0750 ha         1 2NX       0.142000
     24 H9          -4.8890    -0.5560    -1.5830 ha         1 2NX       0.137000
     25 H10         -5.6880     0.1030     0.6650 ha         1 2NX       0.135000
     26 H11         -4.0560     0.7350     2.4140 ha         1 2NX       0.137000
     27 H12         -1.6670     0.7010     1.9450 ha         1 2NX       0.142000
@<TRIPOS>BOND
     1     1     2 1   
     2     1    16 1   
     3     1    17 1   
     4     1    18 1   
     5     2     3 1   
     6     3     4 1   
     7     3     6 2   
     8     3     7 1   
     9     4     5 1   
    10     5    19 1   
    11     5    20 1   
    12     5    21 1   
    13     7     8 1   
    14     7    22 1   
    15     8     9 2   
    16     8    10 1   
    17    10    11 ar  
    18    10    15 ar  
    19    11    12 ar  
    20    11    23 1   
    21    12    13 ar  
    22    12    24 1   
    23    13    14 ar  
    24    13    25 1   
    25    14    15 ar  
    26    14    26 1   
    27    15    27 1   
@<TRIPOS>SUBSTRUCTURE
     1 2NX         1 TEMP              0 ****  ****    0 ROOT
