@<TRIPOS>MOLECULE
2NX
   27    27     1     0     0
SMALL
No Charge or Current Charge


@<TRIPOS>ATOM
      1 CAA          1.9770     2.4500    -0.3490 c3         1 2NX       0.194900
      2 OAK          2.7520     1.2410    -0.2960 os         1 2NX      -0.570400
      3 PAO          2.3430    -0.0060     0.6490 p5         1 2NX       1.348200
      4 OAL          2.7410    -1.2540    -0.2980 os         1 2NX      -0.570400
      5 CAB          1.9560    -2.4570    -0.3520 c3         1 2NX       0.194900
      6 OAD          2.8300    -0.0090     2.0540 o          1 2NX      -0.583000
      7 NAJ          0.6750     0.0020     0.6090 ns         1 2NX      -0.661900
      8 CAM         -0.2180     0.0070    -0.4140 c          1 2NX       0.632700
      9 OAC          0.1440     0.0060    -1.5790 o          1 2NX      -0.562100
     10 CAN         -1.6830     0.0130    -0.0300 ca         1 2NX      -0.163600
     11 CAH         -2.6650     0.0180    -1.0490 ca         1 2NX      -0.067500
     12 CAF         -4.0340     0.0240    -0.7310 ca         1 2NX      -0.120000
     13 CAE         -4.4460     0.0250     0.6100 ca         1 2NX      -0.083000
     14 CAG         -3.4850     0.0200     1.6330 ca         1 2NX      -0.120000
     15 CAI         -2.1140     0.0140     1.3210 ca         1 2NX      -0.067500
     16 H1           2.6300     3.3100    -0.5480 h1         1 2NX       0.044200
     17 H2           1.2330     2.4040    -1.1530 h1         1 2NX       0.044200
     18 H3           1.4560     2.6390     0.5990 h1         1 2NX       0.044200
     19 H4           1.4320    -2.6420     0.5950 h1         1 2NX       0.044200
     20 H5           1.2110    -2.4030    -1.1570 h1         1 2NX       0.044200
     21 H6           2.6010    -3.3220    -0.5520 h1         1 2NX       0.044200
     22 H7           0.3260     0.0030     1.5510 hn         1 2NX       0.332500
     23 H8          -2.3700     0.0170    -2.0970 ha         1 2NX       0.124000
     24 H9          -4.7760     0.0280    -1.5260 ha         1 2NX       0.119000
     25 H10         -5.5060     0.0290     0.8560 ha         1 2NX       0.117000
     26 H11         -3.8040     0.0210     2.6740 ha         1 2NX       0.119000
     27 H12         -1.4040     0.0100     2.1430 ha         1 2NX       0.124000
@<TRIPOS>BOND
     1     1     2 1   
     2     1    16 1   
     3     1    17 1   
     4     1    18 1   
     5     2     3 1   
     6     3     4 1   
     7     3     6 2   
     8     3     7 1   
     9     4     5 1   
    10     5    19 1   
    11     5    20 1   
    12     5    21 1   
    13     7     8 1   
    14     7    22 1   
    15     8     9 2   
    16     8    10 1   
    17    10    11 ar  
    18    10    15 ar  
    19    11    12 ar  
    20    11    23 1   
    21    12    13 ar  
    22    12    24 1   
    23    13    14 ar  
    24    13    25 1   
    25    14    15 ar  
    26    14    26 1   
    27    15    27 1   
@<TRIPOS>SUBSTRUCTURE
     1 2NX         1 TEMP              0 ****  ****    0 ROOT
