@<TRIPOS>MOLECULE
2NY
   32    33     1     0     0
SMALL
bcc


@<TRIPOS>ATOM
      1 CAA          3.5470     1.3920     0.8780 c3         1 2NY      -0.114100
      2 CAH          3.1710     0.8980    -0.5120 c3         1 2NY       0.241300
      3 NAP          2.2310    -0.2100    -0.5220 nh         1 2NY      -0.779300
      4 CAI          2.7500    -1.5650    -0.5770 c3         1 2NY       0.241300
      5 CAB          2.9760    -2.2070     0.7850 c3         1 2NY      -0.114100
      6 C2           0.9060    -0.0010    -0.3270 ca         1 2NY       0.964900
      7 N1           0.5210     1.2890    -0.2220 nb         1 2NY      -0.871000
      8 N3           0.1120    -1.0550    -0.2670 nb         1 2NY      -0.824000
      9 C4          -1.2040    -0.8120    -0.0950 ca         1 2NY       0.498600
     10 CAF         -2.1030    -1.9020    -0.0290 ca         1 2NY      -0.205300
     11 CAD         -3.4470    -1.6910     0.1470 ca         1 2NY      -0.089000
     12 CAE         -3.9640    -0.3900     0.2630 ca         1 2NY      -0.171000
     13 CAG         -3.1120     0.6860     0.2010 ca         1 2NY      -0.071000
     14 C5          -1.7320     0.4920     0.0240 ca         1 2NY      -0.357600
     15 C6          -0.7550     1.5500    -0.0530 ca         1 2NY       0.770200
     16 NAC         -1.1180     2.8340     0.0380 nv         1 2NY      -0.973500
     17 H1           4.0000     0.6010     1.4760 hc         1 2NY       0.040033
     18 H2           4.2670     2.2080     0.8040 hc         1 2NY       0.040033
     19 H3           2.6720     1.7640     1.4090 hc         1 2NY       0.040033
     20 H4           2.7640     1.7240    -1.0950 h1         1 2NY       0.052200
     21 H5           4.0660     0.5600    -1.0380 h1         1 2NY       0.052200
     22 H6           2.0670    -2.1800    -1.1610 h1         1 2NY       0.052200
     23 H7           3.6910    -1.5280    -1.1280 h1         1 2NY       0.052200
     24 H8           2.0500    -2.2410     1.3570 hc         1 2NY       0.040033
     25 H9           3.3310    -3.2310     0.6600 hc         1 2NY       0.040033
     26 H10          3.7220    -1.6670     1.3680 hc         1 2NY       0.040033
     27 H11         -1.7040    -2.9040    -0.1210 ha         1 2NY       0.147000
     28 H12         -4.1190    -2.5380     0.1970 ha         1 2NY       0.129000
     29 H13         -5.0260    -0.2370     0.3990 ha         1 2NY       0.131000
     30 H14         -3.5260     1.6820     0.2910 ha         1 2NY       0.115000
     31 H15         -0.4090     3.5460     0.0190 hn         1 2NY       0.442300
     32 H16         -2.0580     3.1230     0.2350 hn         1 2NY       0.442300
@<TRIPOS>BOND
     1     1     2 1   
     2     1    17 1   
     3     1    18 1   
     4     1    19 1   
     5     2     3 1   
     6     2    20 1   
     7     2    21 1   
     8     3     4 1   
     9     3     6 1   
    10     4     5 1   
    11     4    22 1   
    12     4    23 1   
    13     5    24 1   
    14     5    25 1   
    15     5    26 1   
    16     6     7 ar  
    17     6     8 ar  
    18     7    15 ar  
    19     8     9 ar  
    20     9    10 ar  
    21     9    14 ar  
    22    10    11 ar  
    23    10    27 1   
    24    11    12 ar  
    25    11    28 1   
    26    12    13 ar  
    27    12    29 1   
    28    13    14 ar  
    29    13    30 1   
    30    14    15 ar  
    31    15    16 1   
    32    16    31 1   
    33    16    32 1   
@<TRIPOS>SUBSTRUCTURE
     1 2NY         1 TEMP              0 ****  ****    0 ROOT
