@<TRIPOS>MOLECULE
2NY
   32    33     1     0     0
SMALL
No Charge or Current Charge


@<TRIPOS>ATOM
      1 CAA          3.6710     1.4650     0.8320 c3         1 2NY      -0.114100
      2 CAH          3.2400     0.9130    -0.5400 c3         1 2NY       0.241300
      3 NAP          2.2580    -0.2010    -0.4540 nh         1 2NY      -0.779300
      4 CAI          2.8060    -1.5810    -0.5530 c3         1 2NY       0.241300
      5 CAB          2.9990    -2.2700     0.8110 c3         1 2NY      -0.114100
      6 C2           0.8640     0.0400    -0.2970 ca         1 2NY       0.438900
      7 N1           0.4640     1.3220    -0.2150 nb         1 2NY      -0.345000
      8 N3           0.0510    -1.0370    -0.2410 nb         1 2NY      -0.298000
      9 C4          -1.2720    -0.8290    -0.0910 ca         1 2NY       0.105000
     10 CAF         -2.1620    -1.9160    -0.0270 ca         1 2NY      -0.122000
     11 CAD         -3.5420    -1.7050     0.1280 ca         1 2NY      -0.071000
     12 CAE         -4.0440    -0.3970     0.2180 ca         1 2NY      -0.153000
     13 CAG         -3.1700     0.7000     0.1560 ca         1 2NY      -0.053000
     14 C5          -1.7800     0.4870     0.0030 ca         1 2NY      -0.227000
     15 C6          -0.8430     1.5350    -0.0670 ca         1 2NY       0.441900
     16 NAC         -1.1780     2.8480     0.0180 nv         1 2NY      -1.083900
     17 H1           4.1570     0.6860     1.4290 hc         1 2NY       0.040033
     18 H2           4.3830     2.2880     0.7000 hc         1 2NY       0.040033
     19 H3           2.8080     1.8440     1.3900 hc         1 2NY       0.040033
     20 H4           2.8310     1.7350    -1.1430 h1         1 2NY       0.052200
     21 H5           4.1420     0.5800    -1.0720 h1         1 2NY       0.052200
     22 H6           2.1530    -2.2050    -1.1790 h1         1 2NY       0.052200
     23 H7           3.7770    -1.5650    -1.0670 h1         1 2NY       0.052200
     24 H8           2.0480    -2.3460     1.3490 hc         1 2NY       0.040033
     25 H9           3.3950    -3.2830     0.6690 hc         1 2NY       0.040033
     26 H10          3.7070    -1.7110     1.4320 hc         1 2NY       0.040033
     27 H11         -1.7790    -2.9310    -0.0970 ha         1 2NY       0.129000
     28 H12         -4.2210    -2.5540     0.1760 ha         1 2NY       0.111000
     29 H13         -5.1130    -0.2330     0.3350 ha         1 2NY       0.113000
     30 H14         -3.5820     1.7040     0.2230 ha         1 2NY       0.097000
     31 H15         -0.4230     3.5130     0.1690 hn         1 2NY       0.497500
     32 H16         -2.0800     3.0950     0.4120 hn         1 2NY       0.497500
@<TRIPOS>BOND
     1     1     2 1   
     2     1    17 1   
     3     1    18 1   
     4     1    19 1   
     5     2     3 1   
     6     2    20 1   
     7     2    21 1   
     8     3     4 1   
     9     3     6 1   
    10     4     5 1   
    11     4    22 1   
    12     4    23 1   
    13     5    24 1   
    14     5    25 1   
    15     5    26 1   
    16     6     7 ar  
    17     6     8 ar  
    18     7    15 ar  
    19     8     9 ar  
    20     9    10 ar  
    21     9    14 ar  
    22    10    11 ar  
    23    10    27 1   
    24    11    12 ar  
    25    11    28 1   
    26    12    13 ar  
    27    12    29 1   
    28    13    14 ar  
    29    13    30 1   
    30    14    15 ar  
    31    15    16 1   
    32    16    31 1   
    33    16    32 1   
@<TRIPOS>SUBSTRUCTURE
     1 2NY         1 TEMP              0 ****  ****    0 ROOT
