@<TRIPOS>MOLECULE
2NZ
   23    24     1     0     0
SMALL
bcc


@<TRIPOS>ATOM
      1 CAA          3.9200    -0.9280     0.0450 c3         1 2NZ      -0.201100
      2 C            2.5890    -0.3210    -0.2780 c          1 2NZ       0.544100
      3 O            2.1220    -0.2730    -1.3880 o          1 2NZ      -0.479100
      4 CA           1.8360     0.2380     0.9180 c3         1 2NZ      -0.061700
      5 N            0.5250     0.7040     0.5760 na         1 2NZ      -0.146300
      6 CAL         -0.5830    -0.0700     0.3440 ca         1 2NZ      -0.071200
      7 CAF         -0.8140    -1.4360     0.4610 ca         1 2NZ      -0.131000
      8 CAD         -2.0880    -1.8780     0.1520 ca         1 2NZ      -0.110000
      9 CAC         -3.0940    -0.9900    -0.2590 ca         1 2NZ      -0.153000
     10 CAE         -2.8550     0.3680    -0.3720 ca         1 2NZ      -0.064000
     11 CAK         -1.5770     0.8330    -0.0660 ca         1 2NZ       0.070400
     12 NAI         -1.0670     2.1110    -0.0950 nc         1 2NZ      -0.567100
     13 CAG          0.1710     1.9820     0.2810 cd         1 2NZ       0.425700
     14 H1           3.7640    -1.8760     0.5650 hc         1 2NZ       0.065033
     15 H2           4.4980    -1.1160    -0.8560 hc         1 2NZ       0.065033
     16 H3           4.4900    -0.2890     0.7210 hc         1 2NZ       0.065033
     17 H4           1.7770    -0.5180     1.7050 h1         1 2NZ       0.077700
     18 H5           2.4140     1.0630     1.3400 h1         1 2NZ       0.077700
     19 H6          -0.0430    -2.1300     0.7740 ha         1 2NZ       0.130000
     20 H7          -2.3140    -2.9340     0.2250 ha         1 2NZ       0.129000
     21 H8          -4.0760    -1.3790    -0.4940 ha         1 2NZ       0.131000
     22 H9          -3.6330     1.0500    -0.6900 ha         1 2NZ       0.146000
     23 H10          0.8830     2.7900     0.3770 h5         1 2NZ       0.058800
@<TRIPOS>BOND
     1     1     2 1   
     2     1    14 1   
     3     1    15 1   
     4     1    16 1   
     5     2     3 2   
     6     2     4 1   
     7     4     5 1   
     8     4    17 1   
     9     4    18 1   
    10     5     6 1   
    11     5    13 1   
    12     6     7 ar  
    13     6    11 ar  
    14     7     8 ar  
    15     7    19 1   
    16     8     9 ar  
    17     8    20 1   
    18     9    10 ar  
    19     9    21 1   
    20    10    11 ar  
    21    10    22 1   
    22    11    12 1   
    23    12    13 2   
    24    13    23 1   
@<TRIPOS>SUBSTRUCTURE
     1 2NZ         1 TEMP              0 ****  ****    0 ROOT
