@<TRIPOS>MOLECULE
2NZ
   23    24     1     0     0
SMALL
No Charge or Current Charge


@<TRIPOS>ATOM
      1 CAA          3.1180    -1.2640    -0.3330 c3         1 2NZ      -0.201100
      2 C            2.9320     0.2210    -0.0240 c          1 2NZ       0.544100
      3 O            3.5430     1.0840    -0.6410 o          1 2NZ      -0.479100
      4 CA           1.9340     0.5730     1.0860 c3         1 2NZ      -0.032400
      5 N            0.5950     0.9070     0.5630 na         1 2NZ      -0.175600
      6 CAL         -0.4480     0.0340     0.4050 ca         1 2NZ      -0.071200
      7 CAF         -0.5490    -1.3200     0.7640 ca         1 2NZ      -0.113000
      8 CAD         -1.7580    -1.9880     0.4820 ca         1 2NZ      -0.092000
      9 CAC         -2.8230    -1.2970    -0.1410 ca         1 2NZ      -0.135000
     10 CAE         -2.6840     0.0640    -0.4860 ca         1 2NZ      -0.046000
     11 CAK         -1.4720     0.7120    -0.1980 ca         1 2NZ       0.070400
     12 NAI         -1.1390     2.0320    -0.4570 nc         1 2NZ      -0.567100
     13 CAG          0.1250     2.1130     0.0130 cd         1 2NZ       0.425700
     14 H1           2.1450    -1.6930    -0.5970 hc         1 2NZ       0.065033
     15 H2           3.8620    -1.4430    -1.1180 hc         1 2NZ       0.065033
     16 H3           3.3640    -1.7970     0.5920 hc         1 2NZ       0.065033
     17 H4           1.8650    -0.2690     1.7840 h1         1 2NZ       0.077700
     18 H5           2.3310     1.4350     1.6360 h1         1 2NZ       0.077700
     19 H6           0.2710    -1.8450     1.2460 ha         1 2NZ       0.112000
     20 H7          -1.8720    -3.0370     0.7460 ha         1 2NZ       0.111000
     21 H8          -3.7540    -1.8170    -0.3560 ha         1 2NZ       0.113000
     22 H9          -3.4970     0.6030    -0.9660 ha         1 2NZ       0.128000
     23 H10          0.7540     2.9950    -0.0170 h5         1 2NZ       0.058800
@<TRIPOS>BOND
     1     1     2 1   
     2     1    14 1   
     3     1    15 1   
     4     1    16 1   
     5     2     3 2   
     6     2     4 1   
     7     4     5 1   
     8     4    17 1   
     9     4    18 1   
    10     5     6 1   
    11     5    13 1   
    12     6     7 ar  
    13     6    11 ar  
    14     7     8 ar  
    15     7    19 1   
    16     8     9 ar  
    17     8    20 1   
    18     9    10 ar  
    19     9    21 1   
    20    10    11 ar  
    21    10    22 1   
    22    11    12 1   
    23    12    13 2   
    24    13    23 1   
@<TRIPOS>SUBSTRUCTURE
     1 2NZ         1 TEMP              0 ****  ****    0 ROOT
