@<TRIPOS>MOLECULE
2O0
   25    26     1     0     0
SMALL
No Charge or Current Charge


@<TRIPOS>ATOM
      1 CAE          3.5200     0.0620     0.3880 ca         1 2O0      -0.048000
      2 CAC          3.5860    -1.3390     0.2270 ca         1 2O0      -0.136000
      3 CAD          2.4360    -2.0700    -0.1520 ca         1 2O0      -0.095000
      4 CAF          1.2140    -1.4020    -0.3720 ca         1 2O0      -0.116000
      5 CAM          1.1880    -0.0090    -0.2020 ca         1 2O0      -0.085200
      6 CAL          2.2940     0.7080     0.1650 ca         1 2O0       0.066400
      7 NAJ          2.0200     2.0630     0.2700 nc         1 2O0      -0.572100
      8 CAG          0.7080     2.1230    -0.0480 cd         1 2O0       0.417700
      9 NAN          0.1490     0.8690    -0.3470 na         1 2O0      -0.187600
     10 CAI         -1.2280     0.5230    -0.7330 c3         1 2O0       0.095600
     11 CAH         -2.0570    -0.0160     0.4510 c3         1 2O0      -0.192400
     12 CAK         -3.4940    -0.3960     0.1040 c          1 2O0       0.607100
     13 OAB         -3.9790    -0.2770    -1.0080 o          1 2O0      -0.606100
     14 NAA         -4.2300    -0.8870     1.1210 nt         1 2O0      -0.608000
     15 H1           4.3990     0.6310     0.6800 ha         1 2O0       0.128000
     16 H2           4.5270    -1.8590     0.3950 ha         1 2O0       0.114000
     17 H3           2.4940    -3.1490    -0.2750 ha         1 2O0       0.111000
     18 H4           0.3240    -1.9560    -0.6630 ha         1 2O0       0.116000
     19 H5           0.1070     3.0240    -0.0820 h5         1 2O0       0.060800
     20 H6          -1.7130     1.4190    -1.1420 h1         1 2O0       0.076200
     21 H7          -1.1920    -0.2290    -1.5330 h1         1 2O0       0.076200
     22 H8          -1.5830    -0.8840     0.9260 hc         1 2O0       0.070700
     23 H9          -2.0880     0.6920     1.2870 hc         1 2O0       0.070700
     24 H10         -3.8240    -0.9830     2.0400 hn         1 2O0       0.317500
     25 H11         -5.1880    -1.1550     0.9520 hn         1 2O0       0.317500
@<TRIPOS>BOND
     1     1     2 ar  
     2     1     6 ar  
     3     1    15 1   
     4     2     3 ar  
     5     2    16 1   
     6     3     4 ar  
     7     3    17 1   
     8     4     5 ar  
     9     4    18 1   
    10     5     6 ar  
    11     5     9 1   
    12     6     7 1   
    13     7     8 2   
    14     8     9 1   
    15     8    19 1   
    16     9    10 1   
    17    10    11 1   
    18    10    20 1   
    19    10    21 1   
    20    11    12 1   
    21    11    22 1   
    22    11    23 1   
    23    12    13 2   
    24    12    14 1   
    25    14    24 1   
    26    14    25 1   
@<TRIPOS>SUBSTRUCTURE
     1 2O0         1 TEMP              0 ****  ****    0 ROOT
