@<TRIPOS>MOLECULE
2O0
   25    26     1     0     0
SMALL
abcg2


@<TRIPOS>ATOM
      1 CAE          3.4760     0.0610     0.4150 ca         1 2O0      -0.048000
      2 CAC          3.5320    -1.3130     0.2700 ca         1 2O0      -0.136000
      3 CAD          2.4050    -2.0540    -0.1200 ca         1 2O0      -0.095000
      4 CAF          1.1890    -1.4440    -0.3730 ca         1 2O0      -0.116000
      5 CAM          1.1410    -0.0620    -0.2200 ca         1 2O0      -0.085200
      6 CAL          2.2590     0.6970     0.1650 ca         1 2O0       0.066400
      7 NAJ          1.9230     2.0290     0.2290 nc         1 2O0      -0.572100
      8 CAG          0.6630     2.0650    -0.1010 cd         1 2O0       0.417700
      9 NAN          0.1310     0.8510    -0.3880 na         1 2O0      -0.187600
     10 CAI         -1.2460     0.5660    -0.7280 c3         1 2O0       0.095600
     11 CAH         -2.0000    -0.0190     0.4570 c3         1 2O0      -0.192400
     12 CAK         -3.4390    -0.3500     0.1160 c          1 2O0       0.607100
     13 OAB         -3.9160    -0.1240    -0.9870 o          1 2O0      -0.606100
     14 NAA         -4.1370    -0.9030     1.1170 nt         1 2O0      -0.608000
     15 H1           4.3480     0.6290     0.7140 ha         1 2O0       0.128000
     16 H2           4.4620    -1.8320     0.4620 ha         1 2O0       0.114000
     17 H3           2.4900    -3.1280    -0.2240 ha         1 2O0       0.111000
     18 H4           0.3250    -2.0220    -0.6730 ha         1 2O0       0.116000
     19 H5           0.0610     2.9620    -0.1590 h5         1 2O0       0.060800
     20 H6          -1.7050     1.4970    -1.0570 h1         1 2O0       0.076200
     21 H7          -1.2580    -0.1170    -1.5780 h1         1 2O0       0.076200
     22 H8          -1.5040    -0.9250     0.8170 hc         1 2O0       0.070700
     23 H9          -1.9860     0.6870     1.2920 hc         1 2O0       0.070700
     24 H10         -3.7240    -1.0870     2.0150 hn         1 2O0       0.317500
     25 H11         -5.1020    -1.1600     0.9880 hn         1 2O0       0.317500
@<TRIPOS>BOND
     1     1     2 ar  
     2     1     6 ar  
     3     1    15 1   
     4     2     3 ar  
     5     2    16 1   
     6     3     4 ar  
     7     3    17 1   
     8     4     5 ar  
     9     4    18 1   
    10     5     6 ar  
    11     5     9 1   
    12     6     7 1   
    13     7     8 2   
    14     8     9 1   
    15     8    19 1   
    16     9    10 1   
    17    10    11 1   
    18    10    20 1   
    19    10    21 1   
    20    11    12 1   
    21    11    22 1   
    22    11    23 1   
    23    12    13 2   
    24    12    14 1   
    25    14    24 1   
    26    14    25 1   
@<TRIPOS>SUBSTRUCTURE
     1 2O0         1 TEMP              0 ****  ****    0 ROOT
