@<TRIPOS>MOLECULE
2O1
   25    27     1     0     0
SMALL
abcg2


@<TRIPOS>ATOM
      1 OAA         -3.3270    -1.5380    -0.0070 o          1 2O1      -0.533100
      2 CAK         -2.6170    -0.5520     0.0720 c          1 2O1       0.604700
      3 CAH         -3.1750     0.8200     0.3640 c6         1 2O1      -0.197400
      4 CAG         -2.3720     1.8990    -0.3340 c6         1 2O1       0.224800
      5 NAI         -0.9660     1.7600    -0.0150 nu         1 2O1      -0.945200
      6 CAM         -0.3880     0.5560     0.0000 ca         1 2O1       0.424000
      7 CAL         -1.1600    -0.6130    -0.0280 ca         1 2O1      -0.357600
      8 CAF         -0.4990    -1.8590    -0.0720 ca         1 2O1       0.441900
      9 NAJ          0.7900    -2.0280    -0.0740 nb         1 2O1      -0.708000
     10 CAN          1.5670    -0.9080    -0.0080 ca         1 2O1       0.318000
     11 CAO          1.0420     0.4050     0.0410 ca         1 2O1      -0.145000
     12 CAE          1.9290     1.4970     0.1220 ca         1 2O1      -0.083000
     13 CAC          3.2870     1.2980     0.1470 ca         1 2O1      -0.124000
     14 CAB          3.8080    -0.0030     0.0880 ca         1 2O1      -0.085000
     15 CAD          2.9650    -1.0820     0.0120 ca         1 2O1      -0.097000
     16 H1          -4.2230     0.8740     0.0680 hc         1 2O1       0.080200
     17 H2          -3.1330     0.9670     1.4490 hc         1 2O1       0.080200
     18 H3          -2.5170     1.8330    -1.4180 h1         1 2O1       0.050200
     19 H4          -2.7010     2.8860    -0.0170 h1         1 2O1       0.050200
     20 H5          -0.3940     2.5790    -0.1310 hn         1 2O1       0.495000
     21 H6          -1.1070    -2.7580    -0.1040 h4         1 2O1       0.035100
     22 H7           1.5590     2.5130     0.1770 ha         1 2O1       0.101000
     23 H8           3.9550     2.1460     0.2140 ha         1 2O1       0.116000
     24 H9           4.8790    -0.1540     0.1040 ha         1 2O1       0.118000
     25 H10          3.3520    -2.0920    -0.0310 ha         1 2O1       0.135000
@<TRIPOS>BOND
     1     1     2 2   
     2     2     3 1   
     3     2     7 1   
     4     3     4 1   
     5     3    16 1   
     6     3    17 1   
     7     4     5 1   
     8     4    18 1   
     9     4    19 1   
    10     5     6 1   
    11     5    20 1   
    12     6     7 ar  
    13     6    11 ar  
    14     7     8 ar  
    15     8     9 ar  
    16     8    21 1   
    17     9    10 ar  
    18    10    11 ar  
    19    10    15 ar  
    20    11    12 ar  
    21    12    13 ar  
    22    12    22 1   
    23    13    14 ar  
    24    13    23 1   
    25    14    15 ar  
    26    14    24 1   
    27    15    25 1   
@<TRIPOS>SUBSTRUCTURE
     1 2O1         1 TEMP              0 ****  ****    0 ROOT
