@<TRIPOS>MOLECULE
2O1
   25    27     1     0     0
SMALL
No Charge or Current Charge


@<TRIPOS>ATOM
      1 OAA         -3.3480    -1.4840    -0.2410 o          1 2O1      -0.533100
      2 CAK         -2.6300    -0.5310     0.0310 c          1 2O1       0.604700
      3 CAH         -3.2190     0.8410     0.3350 c6         1 2O1      -0.197400
      4 CAG         -2.3860     1.9340    -0.3350 c6         1 2O1       0.224800
      5 NAI         -0.9950     1.7410     0.0870 nu         1 2O1      -0.945200
      6 CAM         -0.3580     0.5010     0.0600 ca         1 2O1       0.424000
      7 CAL         -1.1490    -0.6400     0.0310 ca         1 2O1      -0.357600
      8 CAF         -0.5350    -1.8880    -0.0140 ca         1 2O1       0.441900
      9 NAJ          0.8050    -2.0380    -0.0170 nb         1 2O1      -0.708000
     10 CAN          1.5880    -0.9380     0.0200 ca         1 2O1       0.318000
     11 CAO          1.0450     0.3690     0.0600 ca         1 2O1      -0.145000
     12 CAE          1.9110     1.4900     0.0950 ca         1 2O1      -0.083000
     13 CAC          3.3030     1.3100     0.0920 ca         1 2O1      -0.124000
     14 CAB          3.8430     0.0170     0.0540 ca         1 2O1      -0.085000
     15 CAD          2.9870    -1.0950     0.0180 ca         1 2O1      -0.097000
     16 H1          -4.2820     0.8790     0.0670 hc         1 2O1       0.080200
     17 H2          -3.1180     0.9960     1.4160 hc         1 2O1       0.080200
     18 H3          -2.4740     1.8440    -1.4280 h1         1 2O1       0.050200
     19 H4          -2.7540     2.9310    -0.0460 h1         1 2O1       0.050200
     20 H5          -0.3780     2.5540     0.0910 hn         1 2O1       0.495000
     21 H6          -1.1200    -2.8080    -0.0420 h4         1 2O1       0.035100
     22 H7           1.5220     2.5050     0.1260 ha         1 2O1       0.101000
     23 H8           3.9640     2.1740     0.1200 ha         1 2O1       0.116000
     24 H9           4.9220    -0.1250     0.0510 ha         1 2O1       0.118000
     25 H10          3.4100    -2.0960    -0.0130 ha         1 2O1       0.135000
@<TRIPOS>BOND
     1     1     2 2   
     2     2     3 1   
     3     2     7 1   
     4     3     4 1   
     5     3    16 1   
     6     3    17 1   
     7     4     5 1   
     8     4    18 1   
     9     4    19 1   
    10     5     6 1   
    11     5    20 1   
    12     6     7 ar  
    13     6    11 ar  
    14     7     8 ar  
    15     8     9 ar  
    16     8    21 1   
    17     9    10 ar  
    18    10    11 ar  
    19    10    15 ar  
    20    11    12 ar  
    21    12    13 ar  
    22    12    22 1   
    23    13    14 ar  
    24    13    23 1   
    25    14    15 ar  
    26    14    24 1   
    27    15    25 1   
@<TRIPOS>SUBSTRUCTURE
     1 2O1         1 TEMP              0 ****  ****    0 ROOT
