@<TRIPOS>MOLECULE
2O2
   49    52     1     0     0
SMALL
No Charge or Current Charge


@<TRIPOS>ATOM
      1 CAV         -1.5560     1.8410     0.9890 ca         1 2O2      -0.066000
      2 CAW         -0.6070     1.9600     2.0200 ca         1 2O2      -0.141000
      3 CAX         -0.5390     0.9900     3.0310 ca         1 2O2      -0.154000
      4 CAY         -1.4300    -0.0930     3.0190 ca         1 2O2      -0.141000
      5 CAZ         -2.3800    -0.2140     1.9900 ca         1 2O2      -0.066000
      6 CAU         -2.4380     0.7370     0.9460 ca         1 2O2      -0.064300
      7 CAB         -3.5010     0.5920    -0.1780 c6         1 2O2       0.192300
      8 PAA         -5.1450     1.3270     0.5720 p5         1 2O2       1.287500
      9 OBB         -4.9540     2.7500     1.0020 o          1 2O2      -0.908833
     10 OBC         -6.2470     1.3020    -0.4440 o          1 2O2      -0.908833
     11 OBA         -5.6040     0.5380     1.7600 o          1 2O2      -0.908833
     12 OAH         -3.6870    -0.8170    -0.5530 os         1 2O2      -0.406000
     13 OAD         -3.1200     1.3320    -1.3800 os         1 2O2      -0.399000
     14 CAC         -1.9690     0.8500    -2.1020 c6         1 2O2       0.119600
     15 CAE         -2.1340    -0.6290    -2.5180 c5         1 2O2       0.094300
     16 OAF         -0.8060    -1.1780    -2.7590 os         1 2O2      -0.476000
     17 CAG         -2.7280    -1.5360    -1.3900 c5         1 2O2       0.155300
     18 CAI         -1.4510    -1.9480    -0.6160 c5         1 2O2      -0.164400
     19 CAJ         -0.6010    -2.2850    -1.8570 c5         1 2O2       0.347700
     20 N1           0.8260    -2.4070    -1.4630 n          1 2O2      -0.305000
     21 C6           1.5310    -1.2910    -0.9870 cc         1 2O2      -0.093400
     22 C2           1.4170    -3.6820    -1.5110 c          1 2O2       0.603000
     23 O2           0.8370    -4.6890    -1.8860 o          1 2O2      -0.648000
     24 N3           2.7120    -3.7500    -1.1070 ns         1 2O2      -0.477500
     25 C4           3.5130    -2.7480    -0.6490 c          1 2O2       0.583200
     26 O4           4.6750    -2.9760    -0.3500 o          1 2O2      -0.553000
     27 C5           2.8430    -1.4060    -0.5740 cd         1 2O2      -0.142200
     28 CAR          3.5830    -0.2170    -0.1140 cf         1 2O2      -0.259000
     29 CAS          4.4700    -0.2110     0.9180 c2         1 2O2      -0.181600
     30 PBD          5.3360     1.3630     1.4690 p5         1 2O2       1.146100
     31 OBF          4.8610     2.5390     0.6840 o          1 2O2      -0.935500
     32 OBG          5.1130     1.4720     2.9390 o          1 2O2      -0.935500
     33 OBE          6.7930     1.0970     1.3110 o          1 2O2      -0.935500
     34 H1          -1.6030     2.6150     0.2260 ha         1 2O2       0.128500
     35 H2           0.0720     2.8080     2.0350 ha         1 2O2       0.075500
     36 H3           0.1950     1.0830     3.8280 ha         1 2O2       0.063000
     37 H4          -1.3880    -0.8400     3.8080 ha         1 2O2       0.075500
     38 H5          -3.0670    -1.0570     1.9970 ha         1 2O2       0.128500
     39 H8          -1.8240     1.4740    -2.9950 h1         1 2O2       0.045700
     40 H9          -1.0770     0.9630    -1.4720 h1         1 2O2       0.045700
     41 H10         -2.7340    -0.6860    -3.4360 h1         1 2O2       0.076700
     42 H11         -3.2280    -2.4170    -1.8150 h1         1 2O2       0.036700
     43 H12         -1.0020    -1.1450    -0.0320 hc         1 2O2       0.075200
     44 H13         -1.6060    -2.8130     0.0360 hc         1 2O2       0.075200
     45 H14         -0.9370    -3.2160    -2.3290 h2         1 2O2       0.050700
     46 H15          0.9560    -0.3710    -1.0020 h4         1 2O2       0.234000
     47 H16          3.1370    -4.6620    -1.1570 hn         1 2O2       0.298500
     48 H17          3.3310     0.7280    -0.6010 ha         1 2O2       0.193000
     49 H18          4.7340    -1.1000     1.4810 ha         1 2O2       0.136000
@<TRIPOS>BOND
     1     1     2 ar  
     2     1     6 ar  
     3     1    34 1   
     4     2     3 ar  
     5     2    35 1   
     6     3     4 ar  
     7     3    36 1   
     8     4     5 ar  
     9     4    37 1   
    10     5     6 ar  
    11     5    38 1   
    12     6     7 1   
    13     7     8 1   
    14     7    12 1   
    15     7    13 1   
    16     8     9 1   
    17     8    10 1   
    18     8    11 1   
    19    12    17 1   
    20    13    14 1   
    21    14    15 1   
    22    14    39 1   
    23    14    40 1   
    24    15    16 1   
    25    15    17 1   
    26    15    41 1   
    27    16    19 1   
    28    17    18 1   
    29    17    42 1   
    30    18    19 1   
    31    18    43 1   
    32    18    44 1   
    33    19    20 1   
    34    19    45 1   
    35    20    21 1   
    36    20    22 1   
    37    21    27 2   
    38    21    46 1   
    39    22    23 2   
    40    22    24 1   
    41    24    25 1   
    42    24    47 1   
    43    25    26 2   
    44    25    27 1   
    45    27    28 1   
    46    28    29 2   
    47    28    48 1   
    48    29    30 1   
    49    29    49 1   
    50    30    31 1   
    51    30    32 1   
    52    30    33 1   
@<TRIPOS>SUBSTRUCTURE
     1 2O2         1 TEMP              0 ****  ****    0 ROOT
