@<TRIPOS>MOLECULE
2O2
   49    52     1     0     0
SMALL
abcg2


@<TRIPOS>ATOM
      1 CAV         -1.7530     1.3630     1.7010 ca         1 2O2      -0.066000
      2 CAW         -1.2100     1.1610     2.9630 ca         1 2O2      -0.141000
      3 CAX         -1.5570     0.0400     3.7040 ca         1 2O2      -0.154000
      4 CAY         -2.4540    -0.8750     3.1670 ca         1 2O2      -0.141000
      5 CAZ         -2.9910    -0.6720     1.9040 ca         1 2O2      -0.066000
      6 CAU         -2.6300     0.4380     1.1400 ca         1 2O2      -0.064300
      7 CAB         -3.2810     0.6930    -0.1970 c6         1 2O2       0.192300
      8 PAA         -4.9220     1.6260     0.0790 p5         1 2O2       1.287500
      9 OBB         -4.4830     2.9110     0.7780 o          1 2O2      -0.908833
     10 OBC         -5.4720     1.8290    -1.3320 o          1 2O2      -0.908833
     11 OBA         -5.7410     0.6730     0.9470 o          1 2O2      -0.908833
     12 OAH         -3.6140    -0.5140    -0.8600 os         1 2O2      -0.406000
     13 OAD         -2.4890     1.5120    -1.0190 os         1 2O2      -0.399000
     14 CAC         -1.2990     0.9110    -1.4780 c6         1 2O2       0.119600
     15 CAE         -1.6680    -0.2790    -2.3480 c5         1 2O2       0.094300
     16 OAF         -0.5420    -1.0940    -2.6490 os         1 2O2      -0.476000
     17 CAG         -2.6180    -1.1920    -1.5750 c5         1 2O2       0.155300
     18 CAI         -1.6240    -2.0580    -0.7920 c5         1 2O2      -0.164400
     19 CAJ         -0.4980    -2.2150    -1.8070 c5         1 2O2       0.347700
     20 N1           0.8390    -2.3030    -1.1830 n          1 2O2      -0.305000
     21 C6           1.7030    -1.2510    -1.1490 cc         1 2O2      -0.093400
     22 C2           1.1600    -3.5020    -0.5990 c          1 2O2       0.603000
     23 O2           0.4090    -4.4580    -0.5960 o          1 2O2      -0.648000
     24 N3           2.3960    -3.5310    -0.0160 ns         1 2O2      -0.477500
     25 C4           3.3330    -2.5130     0.0760 c          1 2O2       0.583200
     26 O4           4.3840    -2.7250     0.6520 o          1 2O2      -0.553000
     27 C5           2.9240    -1.2700    -0.5600 cd         1 2O2      -0.142200
     28 CAR          3.7480    -0.0630    -0.6090 cf         1 2O2      -0.259000
     29 CAS          4.9510     0.1770    -0.0740 c2         1 2O2      -0.181600
     30 PBD          5.8460     1.7780    -0.2250 p5         1 2O2       1.146100
     31 OBF          4.9580     2.6790    -1.0900 o          1 2O2      -0.935500
     32 OBG          5.9970     2.2540     1.2250 o          1 2O2      -0.935500
     33 OBE          7.1780     1.3960    -0.8830 o          1 2O2      -0.935500
     34 H1          -1.4780     2.2510     1.1470 ha         1 2O2       0.128500
     35 H2          -0.5180     1.8870     3.3720 ha         1 2O2       0.075500
     36 H3          -1.1360    -0.1200     4.6890 ha         1 2O2       0.063000
     37 H4          -2.7430    -1.7490     3.7380 ha         1 2O2       0.075500
     38 H5          -3.6880    -1.3930     1.5010 ha         1 2O2       0.128500
     39 H8          -0.7460     1.6630    -2.0440 h1         1 2O2       0.045700
     40 H9          -0.6590     0.5960    -0.6420 h1         1 2O2       0.045700
     41 H10         -2.0970     0.0620    -3.2920 h1         1 2O2       0.076700
     42 H11         -3.1530    -1.8340    -2.2820 h1         1 2O2       0.036700
     43 H12         -1.2690    -1.5480     0.1050 hc         1 2O2       0.075200
     44 H13         -2.0390    -3.0170    -0.4890 hc         1 2O2       0.075200
     45 H14         -0.6170    -3.1190    -2.4080 h2         1 2O2       0.050700
     46 H15          1.3630    -0.3570    -1.6510 h4         1 2O2       0.234000
     47 H16          2.6470    -4.4100     0.4210 hn         1 2O2       0.298500
     48 H17          3.2870     0.7490    -1.1680 ha         1 2O2       0.193000
     49 H18          5.4370    -0.6100     0.4920 ha         1 2O2       0.136000
@<TRIPOS>BOND
     1     1     2 ar  
     2     1     6 ar  
     3     1    34 1   
     4     2     3 ar  
     5     2    35 1   
     6     3     4 ar  
     7     3    36 1   
     8     4     5 ar  
     9     4    37 1   
    10     5     6 ar  
    11     5    38 1   
    12     6     7 1   
    13     7     8 1   
    14     7    12 1   
    15     7    13 1   
    16     8     9 1   
    17     8    10 1   
    18     8    11 1   
    19    12    17 1   
    20    13    14 1   
    21    14    15 1   
    22    14    39 1   
    23    14    40 1   
    24    15    16 1   
    25    15    17 1   
    26    15    41 1   
    27    16    19 1   
    28    17    18 1   
    29    17    42 1   
    30    18    19 1   
    31    18    43 1   
    32    18    44 1   
    33    19    20 1   
    34    19    45 1   
    35    20    21 1   
    36    20    22 1   
    37    21    27 2   
    38    21    46 1   
    39    22    23 2   
    40    22    24 1   
    41    24    25 1   
    42    24    47 1   
    43    25    26 2   
    44    25    27 1   
    45    27    28 1   
    46    28    29 2   
    47    28    48 1   
    48    29    30 1   
    49    29    49 1   
    50    30    31 1   
    51    30    32 1   
    52    30    33 1   
@<TRIPOS>SUBSTRUCTURE
     1 2O2         1 TEMP              0 ****  ****    0 ROOT
