@<TRIPOS>MOLECULE
2O3
   54    57     1     0     0
SMALL
abcg2


@<TRIPOS>ATOM
      1 CAS         -4.4180    -1.5540     0.8250 c6         1 2O3       0.216800
      2 CAT         -5.5590    -2.3930     0.2820 c6         1 2O3      -0.085400
      3 CAU         -6.8780    -1.6840     0.5270 c6         1 2O3      -0.023100
      4 CAV         -6.7970    -0.2240     0.1650 ca         1 2O3      -0.140300
      5 CBA         -7.9700     0.4950    -0.0130 ca         1 2O3      -0.074000
      6 CAZ         -7.9740     1.8490    -0.3190 ca         1 2O3      -0.153000
      7 CAY         -6.7560     2.4960    -0.4430 ca         1 2O3      -0.074000
      8 CAX         -5.5660     1.8040    -0.2740 ca         1 2O3      -0.184000
      9 CAW         -5.5510     0.4280     0.0160 ca         1 2O3       0.324000
     10 NAR         -4.3640    -0.2760     0.1390 nh         1 2O3      -0.811400
     11 CAQ         -3.1250     0.4790     0.1760 c3         1 2O3       0.220800
     12 CAP         -1.8640    -0.3720     0.1260 c3         1 2O3      -0.106400
     13 CAO         -0.6490     0.5180    -0.0830 c3         1 2O3       0.101000
     14 NAN          0.5620    -0.2740    -0.0470 ns         1 2O3      -0.499900
     15 CAM          1.7430     0.1890    -0.4860 c          1 2O3       0.619700
     16 OBB          1.8660     1.3260    -0.9390 o          1 2O3      -0.625100
     17 CAL          2.8920    -0.7520    -0.3890 ca         1 2O3      -0.203600
     18 CAG          4.2000    -0.2550    -0.2560 ca         1 2O3       0.328000
     19 N            4.5500     1.0690    -0.2590 nu         1 2O3      -0.935200
     20 CA           5.6460     1.4970     0.5890 c6         1 2O3       0.143500
     21 CB           5.9520     2.9600     0.3340 c3         1 2O3      -0.089100
     22 C            6.8520     0.6120     0.3210 c          1 2O3       0.567000
     23 O            7.9990     1.0010     0.4330 o          1 2O3      -0.537000
     24 NAC          6.5480    -0.6640    -0.0120 ns         1 2O3      -0.140000
     25 CAH          5.2550    -1.1750    -0.1210 ca         1 2O3      -0.087000
     26 CAI          5.0290    -2.5370    -0.1600 ca         1 2O3      -0.100000
     27 CAJ          3.7390    -3.0220    -0.3430 ca         1 2O3      -0.134000
     28 CAK          2.6880    -2.1350    -0.4550 ca         1 2O3      -0.076000
     29 H1          -4.5320    -1.4260     1.9110 h1         1 2O3       0.034700
     30 H2          -3.4830    -2.0860     0.6650 h1         1 2O3       0.034700
     31 H3          -5.4020    -2.5560    -0.7870 hc         1 2O3       0.051200
     32 H4          -5.5550    -3.3730     0.7620 hc         1 2O3       0.051200
     33 H5          -7.6850    -2.1600    -0.0340 hc         1 2O3       0.047200
     34 H6          -7.1460    -1.7810     1.5840 hc         1 2O3       0.047200
     35 H7          -8.9130    -0.0300     0.0980 ha         1 2O3       0.106000
     36 H8          -8.9060     2.3830    -0.4530 ha         1 2O3       0.114000
     37 H9          -6.7180     3.5550    -0.6670 ha         1 2O3       0.108000
     38 H10         -4.6450     2.3610    -0.3680 ha         1 2O3       0.109000
     39 H11         -3.1020     1.1360    -0.6960 h1         1 2O3       0.040700
     40 H12         -3.0790     1.1330     1.0590 h1         1 2O3       0.040700
     41 H13         -1.7380    -0.9340     1.0560 hc         1 2O3       0.051700
     42 H14         -1.9310    -1.0980    -0.6890 hc         1 2O3       0.051700
     43 H15         -0.7150     1.0220    -1.0480 h1         1 2O3       0.055200
     44 H16         -0.6200     1.3000     0.6840 h1         1 2O3       0.055200
     45 H17          0.5400    -1.1290     0.4850 hn         1 2O3       0.316500
     46 H18          3.7800     1.7160    -0.3350 hn         1 2O3       0.509000
     47 H19          5.4000     1.3690     1.6560 h1         1 2O3       0.051700
     48 H20          5.0730     3.5660     0.5540 hc         1 2O3       0.054700
     49 H21          6.7600     3.3050     0.9760 hc         1 2O3       0.054700
     50 H22          6.2350     3.1290    -0.7050 hc         1 2O3       0.054700
     51 H23          7.3220    -1.3060    -0.1210 hn         1 2O3       0.161000
     52 H24          5.8640    -3.2200    -0.0700 ha         1 2O3       0.119000
     53 H25          3.5660    -4.0880    -0.4030 ha         1 2O3       0.121000
     54 H26          1.6910    -2.5250    -0.6180 ha         1 2O3       0.113000
@<TRIPOS>BOND
     1     1     2 1   
     2     1    10 1   
     3     1    29 1   
     4     1    30 1   
     5     2     3 1   
     6     2    31 1   
     7     2    32 1   
     8     3     4 1   
     9     3    33 1   
    10     3    34 1   
    11     4     5 ar  
    12     4     9 ar  
    13     5     6 ar  
    14     5    35 1   
    15     6     7 ar  
    16     6    36 1   
    17     7     8 ar  
    18     7    37 1   
    19     8     9 ar  
    20     8    38 1   
    21     9    10 1   
    22    10    11 1   
    23    11    12 1   
    24    11    39 1   
    25    11    40 1   
    26    12    13 1   
    27    12    41 1   
    28    12    42 1   
    29    13    14 1   
    30    13    43 1   
    31    13    44 1   
    32    14    15 1   
    33    14    45 1   
    34    15    16 2   
    35    15    17 1   
    36    17    18 ar  
    37    17    28 ar  
    38    18    19 1   
    39    18    25 ar  
    40    19    20 1   
    41    19    46 1   
    42    20    21 1   
    43    20    22 1   
    44    20    47 1   
    45    21    48 1   
    46    21    49 1   
    47    21    50 1   
    48    22    23 2   
    49    22    24 1   
    50    24    25 1   
    51    24    51 1   
    52    25    26 ar  
    53    26    27 ar  
    54    26    52 1   
    55    27    28 ar  
    56    27    53 1   
    57    28    54 1   
@<TRIPOS>SUBSTRUCTURE
     1 2O3         1 TEMP              0 ****  ****    0 ROOT
