@<TRIPOS>MOLECULE
2O3
   54    57     1     0     0
SMALL
No Charge or Current Charge


@<TRIPOS>ATOM
      1 CAS         -4.4560    -1.7100    -0.3330 c6         1 2O3       0.216800
      2 CAT         -5.8310    -2.3330    -0.6480 c6         1 2O3      -0.085400
      3 CAU         -6.8920    -1.8250     0.3400 c6         1 2O3      -0.023100
      4 CAV         -6.9220    -0.2990     0.3410 ca         1 2O3      -0.140300
      5 CBA         -8.1320     0.3600     0.6330 ca         1 2O3      -0.074000
      6 CAZ         -8.1960     1.7610     0.6150 ca         1 2O3      -0.153000
      7 CAY         -7.0530     2.5080     0.3020 ca         1 2O3      -0.074000
      8 CAX         -5.8420     1.8550     0.0160 ca         1 2O3      -0.184000
      9 CAW         -5.7500     0.4440     0.0400 ca         1 2O3       0.324000
     10 NAR         -4.5090    -0.2180    -0.2290 nh         1 2O3      -0.811400
     11 CAQ         -3.2250     0.5420    -0.2540 c3         1 2O3       0.220800
     12 CAP         -1.9150    -0.2720    -0.1230 c3         1 2O3      -0.106400
     13 CAO         -0.6710     0.6330    -0.0610 c3         1 2O3       0.101000
     14 NAN          0.5600    -0.1490     0.0610 ns         1 2O3      -0.499900
     15 CAM          1.8250     0.3930     0.1090 c          1 2O3       0.619700
     16 OBB          1.9740     1.6080     0.0460 o          1 2O3      -0.625100
     17 CAL          2.9780    -0.5910     0.2260 ca         1 2O3      -0.203600
     18 CAG          4.3110    -0.1490     0.4210 ca         1 2O3       0.328000
     19 N            4.6210     1.2090     0.5440 nu         1 2O3      -0.935200
     20 CA           6.0070     1.7590     0.4380 c6         1 2O3       0.143500
     21 CB           6.2050     2.3850    -0.9660 c3         1 2O3      -0.089100
     22 C            7.1300     0.6900     0.7050 c          1 2O3       0.567000
     23 O            8.3020     0.9910     0.9140 o          1 2O3      -0.537000
     24 NAC          6.7000    -0.6250     0.7010 ns         1 2O3      -0.140000
     25 CAH          5.3710    -1.0830     0.5200 ca         1 2O3      -0.087000
     26 CAI          5.1160    -2.4590     0.4360 ca         1 2O3      -0.100000
     27 CAJ          3.8040    -2.9080     0.2440 ca         1 2O3      -0.134000
     28 CAK          2.7470    -1.9900     0.1370 ca         1 2O3      -0.076000
     29 H1          -4.0850    -2.1330     0.6120 h1         1 2O3       0.034700
     30 H2          -3.7650    -2.0180    -1.1300 h1         1 2O3       0.034700
     31 H3          -6.1250    -2.0700    -1.6730 hc         1 2O3       0.051200
     32 H4          -5.7650    -3.4280    -0.6080 hc         1 2O3       0.051200
     33 H5          -7.8750    -2.2320     0.0650 hc         1 2O3       0.047200
     34 H6          -6.6690    -2.1900     1.3520 hc         1 2O3       0.047200
     35 H7          -9.0260    -0.2140     0.8680 ha         1 2O3       0.106000
     36 H8          -9.1330     2.2660     0.8380 ha         1 2O3       0.114000
     37 H9          -7.1030     3.5950     0.2800 ha         1 2O3       0.108000
     38 H10         -4.9800     2.4650    -0.2290 ha         1 2O3       0.109000
     39 H11         -3.1730     1.1220    -1.1860 h1         1 2O3       0.040700
     40 H12         -3.2300     1.2620     0.5760 h1         1 2O3       0.040700
     41 H13         -1.9550    -0.8840     0.7860 hc         1 2O3       0.051700
     42 H14         -1.8110    -0.9480    -0.9800 hc         1 2O3       0.051700
     43 H15         -0.6140     1.2440    -0.9720 h1         1 2O3       0.055200
     44 H16         -0.7480     1.3080     0.8020 h1         1 2O3       0.055200
     45 H17          0.4880    -1.1550     0.1300 hn         1 2O3       0.316500
     46 H18          3.8150     1.8310     0.3890 hn         1 2O3       0.509000
     47 H19          6.1480     2.5530     1.1850 h1         1 2O3       0.051700
     48 H20          5.4670     3.1740    -1.1560 hc         1 2O3       0.054700
     49 H21          7.2000     2.8360    -1.0610 hc         1 2O3       0.054700
     50 H22          6.1030     1.6320    -1.7570 hc         1 2O3       0.054700
     51 H23          7.4070    -1.3320     0.8570 hn         1 2O3       0.161000
     52 H24          5.9300    -3.1770     0.5130 ha         1 2O3       0.119000
     53 H25          3.6030    -3.9750     0.1730 ha         1 2O3       0.121000
     54 H26          1.7500    -2.3920    -0.0220 ha         1 2O3       0.113000
@<TRIPOS>BOND
     1     1     2 1   
     2     1    10 1   
     3     1    29 1   
     4     1    30 1   
     5     2     3 1   
     6     2    31 1   
     7     2    32 1   
     8     3     4 1   
     9     3    33 1   
    10     3    34 1   
    11     4     5 ar  
    12     4     9 ar  
    13     5     6 ar  
    14     5    35 1   
    15     6     7 ar  
    16     6    36 1   
    17     7     8 ar  
    18     7    37 1   
    19     8     9 ar  
    20     8    38 1   
    21     9    10 1   
    22    10    11 1   
    23    11    12 1   
    24    11    39 1   
    25    11    40 1   
    26    12    13 1   
    27    12    41 1   
    28    12    42 1   
    29    13    14 1   
    30    13    43 1   
    31    13    44 1   
    32    14    15 1   
    33    14    45 1   
    34    15    16 2   
    35    15    17 1   
    36    17    18 ar  
    37    17    28 ar  
    38    18    19 1   
    39    18    25 ar  
    40    19    20 1   
    41    19    46 1   
    42    20    21 1   
    43    20    22 1   
    44    20    47 1   
    45    21    48 1   
    46    21    49 1   
    47    21    50 1   
    48    22    23 2   
    49    22    24 1   
    50    24    25 1   
    51    24    51 1   
    52    25    26 ar  
    53    26    27 ar  
    54    26    52 1   
    55    27    28 ar  
    56    27    53 1   
    57    28    54 1   
@<TRIPOS>SUBSTRUCTURE
     1 2O3         1 TEMP              0 ****  ****    0 ROOT
