@<TRIPOS>MOLECULE
2O4
   58    61     1     0     0
SMALL
abcg2


@<TRIPOS>ATOM
      1 C4          -5.1290     1.1910    -2.2160 ca         1 2O4      -0.101000
      2 C14          6.4850     2.3310     0.6540 c6         1 2O4      -0.014100
      3 C5          -3.9200     1.8780    -2.2440 ca         1 2O4      -0.134000
      4 C6          -2.9850     1.6490    -1.2560 ca         1 2O4      -0.075000
      5 C11          2.6370     0.8000     1.7630 c3         1 2O4       0.233800
      6 C7          -3.2260     0.7370    -0.2220 ca         1 2O4      -0.203600
      7 C8          -2.1990     0.4810     0.8240 c          1 2O4       0.619700
      8 C10          1.4710     1.0160     0.8010 c3         1 2O4      -0.124400
      9 C12          4.2580     2.6430     1.6970 c6         1 2O4       0.236800
     10 C13          5.3020     3.2740     0.7990 c6         1 2O4      -0.090400
     11 N1          -0.9200     0.6610     0.4600 ns         1 2O4      -0.496900
     12 N2           3.8970     1.3020     1.2690 nh         1 2O4      -0.839400
     13 C3          -5.3980     0.3080    -1.1890 ca         1 2O4      -0.087000
     14 N3          -4.8650    -0.7720     0.8360 nu         1 2O4      -0.936200
     15 C2          -6.8990    -1.3960    -0.3060 c          1 2O4       0.571000
     16 N           -6.6330    -0.3360    -1.1030 ns         1 2O4      -0.138000
     17 C22         -4.4660     0.0760    -0.1610 ca         1 2O4       0.329000
     18 C1          -5.7100    -1.8940     0.4910 c6         1 2O4       0.139500
     19 C           -4.9860    -2.9960    -0.2870 c3         1 2O4      -0.123100
     20 O1          -2.5020     0.1190     1.9600 o          1 2O4      -0.630100
     21 C20          4.7150     0.5430     0.4740 ca         1 2O4       0.386000
     22 C19          4.3030    -0.7020    -0.0170 ca         1 2O4      -0.239000
     23 C18          5.1370    -1.4790    -0.8190 ca         1 2O4       0.180100
     24 O            4.6180    -2.6610    -1.2200 os         1 2O4      -0.347100
     25 C21          5.4090    -3.4940    -2.0410 c3         1 2O4       0.150900
     26 C17          6.4030    -1.0240    -1.1660 ca         1 2O4      -0.249000
     27 C16          6.8030     0.2180    -0.6790 ca         1 2O4      -0.029000
     28 C15          6.0110     1.0040     0.1340 ca         1 2O4      -0.189300
     29 H1          -5.8730     1.3590    -2.9850 ha         1 2O4       0.118000
     30 H3           6.9680     2.2110     1.6310 hc         1 2O4       0.046700
     31 H4          -3.7210     2.5900    -3.0330 ha         1 2O4       0.121000
     32 H5          -2.0570     2.2050    -1.2760 ha         1 2O4       0.113000
     33 H6           2.4220     1.3080     2.7080 h1         1 2O4       0.051200
     34 H7           2.7280    -0.2600     2.0170 h1         1 2O4       0.051200
     35 H10          1.3490     2.0850     0.6100 hc         1 2O4       0.053700
     36 H11          1.6940     0.5430    -0.1610 hc         1 2O4       0.053700
     37 H12          4.6240     2.6240     2.7320 h1         1 2O4       0.036700
     38 H13          3.3550     3.2590     1.6980 h1         1 2O4       0.036700
     39 H14          5.6070     4.2270     1.2320 hc         1 2O4       0.051200
     40 H15          4.8720     3.4880    -0.1830 hc         1 2O4       0.051200
     41 H16         -0.6990     0.7780    -0.5150 hn         1 2O4       0.318500
     42 H17         -4.1930    -0.9260     1.5730 hn         1 2O4       0.513000
     43 H18         -7.3730    -0.0220    -1.7160 hn         1 2O4       0.160000
     44 H19         -6.0970    -2.3100     1.4220 h1         1 2O4       0.095700
     45 H20         -4.1370    -3.3570     0.2940 hc         1 2O4       0.050700
     46 H21         -5.6480    -3.8410    -0.4750 hc         1 2O4       0.050700
     47 H22         -4.6120    -2.6320    -1.2450 hc         1 2O4       0.050700
     48 H23          3.3190    -1.0940     0.2030 ha         1 2O4       0.123000
     49 H24          6.3380    -3.7920    -1.5500 h1         1 2O4       0.039033
     50 H25          4.8180    -4.3860    -2.2400 h1         1 2O4       0.039033
     51 H26          5.6540    -3.0180    -2.9940 h1         1 2O4       0.039033
     52 H27          7.0720    -1.5910    -1.7980 ha         1 2O4       0.118000
     53 H28          7.7890     0.5830    -0.9450 ha         1 2O4       0.105000
     54 O2          -7.9910    -1.9340    -0.2690 o          1 2O4      -0.540000
     55 C9           0.1830     0.4480     1.3730 c3         1 2O4       0.103000
     56 H2           7.2410     2.7490    -0.0130 hc         1 2O4       0.046700
     57 H8           0.3060    -0.6210     1.5800 h1         1 2O4       0.052700
     58 H9          -0.0450     0.9300     2.3260 h1         1 2O4       0.052700
@<TRIPOS>BOND
     1     1     3 ar  
     2     1    13 ar  
     3     1    29 1   
     4     2    10 1   
     5     2    28 1   
     6     2    30 1   
     7     2    56 1   
     8     3     4 ar  
     9     3    31 1   
    10     4     6 ar  
    11     4    32 1   
    12     5     8 1   
    13     5    12 1   
    14     5    33 1   
    15     5    34 1   
    16     6     7 1   
    17     6    17 ar  
    18     7    11 1   
    19     7    20 2   
    20     8    35 1   
    21     8    36 1   
    22     8    55 1   
    23     9    10 1   
    24     9    12 1   
    25     9    37 1   
    26     9    38 1   
    27    10    39 1   
    28    10    40 1   
    29    11    41 1   
    30    11    55 1   
    31    12    21 1   
    32    13    16 1   
    33    13    17 ar  
    34    14    17 1   
    35    14    18 1   
    36    14    42 1   
    37    15    16 1   
    38    15    18 1   
    39    15    54 2   
    40    16    43 1   
    41    18    19 1   
    42    18    44 1   
    43    19    45 1   
    44    19    46 1   
    45    19    47 1   
    46    21    22 ar  
    47    21    28 ar  
    48    22    23 ar  
    49    22    48 1   
    50    23    24 1   
    51    23    26 ar  
    52    24    25 1   
    53    25    49 1   
    54    25    50 1   
    55    25    51 1   
    56    26    27 ar  
    57    26    52 1   
    58    27    28 ar  
    59    27    53 1   
    60    55    57 1   
    61    55    58 1   
@<TRIPOS>SUBSTRUCTURE
     1 2O4         1 TEMP              0 ****  ****    0 ROOT
