@<TRIPOS>MOLECULE
2O4
   58    61     1     0     0
SMALL
No Charge or Current Charge


@<TRIPOS>ATOM
      1 C4          -4.7710     0.8150    -2.7000 ca         1 2O4      -0.101000
      2 C14          6.2670     2.7190     0.5140 c6         1 2O4      -0.014100
      3 C5          -3.4060     1.1100    -2.7980 ca         1 2O4      -0.134000
      4 C6          -2.5370     0.8140    -1.7360 ca         1 2O4      -0.075000
      5 C11          2.7520     0.5450     2.0150 c3         1 2O4       0.233800
      6 C7          -3.0170     0.2170    -0.5400 ca         1 2O4      -0.203600
      7 C8          -2.0670    -0.0990     0.6040 c          1 2O4       0.619700
      8 C10          1.6170     0.7580     0.9930 c3         1 2O4      -0.124400
      9 C12          4.4180     2.4340     2.2090 c6         1 2O4       0.236800
     10 C13          5.0450     3.3820     1.1710 c6         1 2O4      -0.090400
     11 N1          -0.7750     0.3580     0.4700 ns         1 2O4      -0.496900
     12 N2           4.0400     1.1380     1.5850 nh         1 2O4      -0.839400
     13 C3          -5.2680     0.2200    -1.5320 ca         1 2O4      -0.087000
     14 N3          -4.9590    -0.6390     0.6990 nu         1 2O4      -0.936200
     15 C2          -7.2740    -0.7680    -0.4040 c          1 2O4       0.571000
     16 N           -6.6480    -0.0940    -1.4370 ns         1 2O4      -0.138000
     17 C22         -4.4020    -0.0760    -0.4520 ca         1 2O4       0.329000
     18 C1          -6.3210    -1.2560     0.7480 c6         1 2O4       0.139500
     19 C           -6.1780    -2.7990     0.6960 c3         1 2O4      -0.123100
     20 O1          -2.3930    -0.7350     1.6000 o          1 2O4      -0.630100
     21 C20          4.8560     0.5730     0.5570 ca         1 2O4       0.386000
     22 C19          4.6090    -0.7230     0.0610 ca         1 2O4      -0.239000
     23 C18          5.4110    -1.2810    -0.9410 ca         1 2O4       0.180100
     24 O            5.1030    -2.5540    -1.3740 os         1 2O4      -0.347100
     25 C21          5.8620    -3.2210    -2.3980 c3         1 2O4       0.150900
     26 C17          6.4890    -0.5450    -1.4650 ca         1 2O4      -0.249000
     27 C16          6.7530     0.7440    -0.9840 ca         1 2O4      -0.029000
     28 C15          5.9430     1.3080     0.0190 ca         1 2O4      -0.189300
     29 H1          -5.4370     1.0430    -3.5300 ha         1 2O4       0.118000
     30 H3           7.0910     2.6670     1.2380 hc         1 2O4       0.046700
     31 H4          -3.0160     1.5670    -3.7050 ha         1 2O4       0.121000
     32 H5          -1.4850     1.0530    -1.8690 ha         1 2O4       0.113000
     33 H6           2.4400     0.9900     2.9700 h1         1 2O4       0.051200
     34 H7           2.8730    -0.5280     2.2170 h1         1 2O4       0.051200
     35 H10          1.4830     1.8340     0.8290 hc         1 2O4       0.053700
     36 H11          1.9030     0.3170     0.0310 hc         1 2O4       0.053700
     37 H12          5.1340     2.2610     3.0260 h1         1 2O4       0.036700
     38 H13          3.5370     2.9290     2.6440 h1         1 2O4       0.036700
     39 H14          5.3360     4.3270     1.6500 hc         1 2O4       0.051200
     40 H15          4.2980     3.6300     0.4050 hc         1 2O4       0.051200
     41 H16         -0.5590     0.8880    -0.3630 hn         1 2O4       0.318500
     42 H17         -4.2580    -0.9010     1.4080 hn         1 2O4       0.513000
     43 H18         -7.2380     0.2180    -2.1960 hn         1 2O4       0.160000
     44 H19         -6.8260    -0.9930     1.6900 h1         1 2O4       0.095700
     45 H20         -5.5630    -3.1680     1.5250 hc         1 2O4       0.050700
     46 H21         -7.1560    -3.2890     0.7680 hc         1 2O4       0.050700
     47 H22         -5.7100    -3.1250    -0.2410 hc         1 2O4       0.050700
     48 H23          3.7930    -1.3200     0.4450 ha         1 2O4       0.123000
     49 H24          6.9090    -3.3410    -2.0920 h1         1 2O4       0.039033
     50 H25          5.4480    -4.2190    -2.5880 h1         1 2O4       0.039033
     51 H26          5.8310    -2.6550    -3.3380 h1         1 2O4       0.039033
     52 H27          7.1310    -0.9520    -2.2410 ha         1 2O4       0.118000
     53 H28          7.5890     1.3090    -1.3920 ha         1 2O4       0.105000
     54 O2          -8.4870    -0.9540    -0.3900 o          1 2O4      -0.540000
     55 C9           0.2850     0.1430     1.4550 c3         1 2O4       0.103000
     56 H2           6.6200     3.3460    -0.3170 hc         1 2O4       0.046700
     57 H8           0.4110    -0.9370     1.6090 h1         1 2O4       0.052700
     58 H9          -0.0210     0.5950     2.4080 h1         1 2O4       0.052700
@<TRIPOS>BOND
     1     1     3 ar  
     2     1    13 ar  
     3     1    29 1   
     4     2    10 1   
     5     2    28 1   
     6     2    30 1   
     7     2    56 1   
     8     3     4 ar  
     9     3    31 1   
    10     4     6 ar  
    11     4    32 1   
    12     5     8 1   
    13     5    12 1   
    14     5    33 1   
    15     5    34 1   
    16     6     7 1   
    17     6    17 ar  
    18     7    11 1   
    19     7    20 2   
    20     8    35 1   
    21     8    36 1   
    22     8    55 1   
    23     9    10 1   
    24     9    12 1   
    25     9    37 1   
    26     9    38 1   
    27    10    39 1   
    28    10    40 1   
    29    11    41 1   
    30    11    55 1   
    31    12    21 1   
    32    13    16 1   
    33    13    17 ar  
    34    14    17 1   
    35    14    18 1   
    36    14    42 1   
    37    15    16 1   
    38    15    18 1   
    39    15    54 2   
    40    16    43 1   
    41    18    19 1   
    42    18    44 1   
    43    19    45 1   
    44    19    46 1   
    45    19    47 1   
    46    21    22 ar  
    47    21    28 ar  
    48    22    23 ar  
    49    22    48 1   
    50    23    24 1   
    51    23    26 ar  
    52    24    25 1   
    53    25    49 1   
    54    25    50 1   
    55    25    51 1   
    56    26    27 ar  
    57    26    52 1   
    58    27    28 ar  
    59    27    53 1   
    60    55    57 1   
    61    55    58 1   
@<TRIPOS>SUBSTRUCTURE
     1 2O4         1 TEMP              0 ****  ****    0 ROOT
