@<TRIPOS>MOLECULE
2O5
   43    46     1     0     0
SMALL
abcg2


@<TRIPOS>ATOM
      1 O           -7.4890    -1.2630     0.6920 o          1 2O5      -0.723000
      2 C16         -6.2870    -0.9650     0.5560 c          1 2O5       0.725000
      3 O1          -5.3250    -1.4160     1.2020 o          1 2O5      -0.723000
      4 C15         -5.9810     0.0570    -0.5700 c3         1 2O5      -0.193100
      5 C12         -4.6150     0.6590    -0.5100 ca         1 2O5       0.008700
      6 C11         -3.5030    -0.0150    -1.0070 ca         1 2O5      -0.096500
      7 C10         -2.2250     0.5200    -0.9450 ca         1 2O5      -0.130000
      8 C13         -4.3990     1.9110     0.0590 ca         1 2O5      -0.096500
      9 C14         -3.1280     2.4560     0.1470 ca         1 2O5      -0.130000
     10 C9          -2.0250     1.7650    -0.3470 ca         1 2O5       0.240000
     11 N3          -0.7780     2.4010    -0.2600 nu         1 2O5      -0.902900
     12 C8           0.4540     1.8720    -0.1410 ca         1 2O5       0.413900
     13 N1           1.4500     2.7550    -0.0090 nb         1 2O5      -0.308000
     14 C7           2.6560     2.2360     0.1290 ca         1 2O5       0.233300
     15 C17          3.7980     3.1460     0.2960 cx         1 2O5      -0.195000
     16 C19          3.8140     4.4600    -0.4480 cx         1 2O5      -0.107400
     17 C18          3.6020     4.4560     1.0190 cx         1 2O5      -0.107400
     18 N            2.9210     0.9280     0.1310 nb         1 2O5      -0.273000
     19 N2           0.6190     0.5500    -0.1530 nb         1 2O5      -0.257000
     20 C6           1.8670     0.1370    -0.0160 cp         1 2O5       0.250500
     21 C2           2.1020    -1.3240    -0.0300 cp         1 2O5      -0.149500
     22 C1           1.0340    -2.2130    -0.1400 ca         1 2O5      -0.050000
     23 C3           3.4020    -1.8150     0.0630 ca         1 2O5      -0.060000
     24 C4           3.6140    -3.1820     0.0410 ca         1 2O5       0.096000
     25 CL           5.2340    -3.7880     0.1500 cl         1 2O5      -0.222000
     26 C5           2.5600    -4.0770    -0.0690 ca         1 2O5      -0.090000
     27 C            1.2680    -3.5790    -0.1580 ca         1 2O5      -0.118000
     28 H2          -6.1130    -0.4680    -1.5230 hc         1 2O5       0.033200
     29 H3          -6.7430     0.8410    -0.5540 hc         1 2O5       0.033200
     30 H4          -3.6340    -0.9820    -1.4780 ha         1 2O5       0.112500
     31 H5          -1.3960    -0.0290    -1.3630 ha         1 2O5       0.105000
     32 H6          -5.2380     2.4750     0.4490 ha         1 2O5       0.112500
     33 H7          -2.9920     3.4290     0.6060 ha         1 2O5       0.105000
     34 H8          -0.8020     3.4040    -0.1510 hn         1 2O5       0.502000
     35 H9           4.7470     2.6430     0.4310 hc         1 2O5       0.099700
     36 H10          4.7710     4.7840    -0.8350 hc         1 2O5       0.076700
     37 H11          2.9660     4.6720    -1.0870 hc         1 2O5       0.076700
     38 H12          2.6080     4.6660     1.3910 hc         1 2O5       0.076700
     39 H13          4.4110     4.7780     1.6620 hc         1 2O5       0.076700
     40 H14          0.0240    -1.8350    -0.2080 ha         1 2O5       0.157000
     41 H15          4.2340    -1.1300     0.1480 ha         1 2O5       0.148000
     42 H16          2.7410    -5.1430    -0.0850 ha         1 2O5       0.123000
     43 H17          0.4390    -4.2680    -0.2430 ha         1 2O5       0.126000
@<TRIPOS>BOND
     1     1     2 1   
     2     2     3 1   
     3     2     4 1   
     4     4     5 1   
     5     4    28 1   
     6     4    29 1   
     7     5     6 ar  
     8     5     8 ar  
     9     6     7 ar  
    10     6    30 1   
    11     7    10 ar  
    12     7    31 1   
    13     8     9 ar  
    14     8    32 1   
    15     9    10 ar  
    16     9    33 1   
    17    10    11 1   
    18    11    12 1   
    19    11    34 1   
    20    12    13 ar  
    21    12    19 ar  
    22    13    14 ar  
    23    14    15 1   
    24    14    18 ar  
    25    15    16 1   
    26    15    17 1   
    27    15    35 1   
    28    16    17 1   
    29    16    36 1   
    30    16    37 1   
    31    17    38 1   
    32    17    39 1   
    33    18    20 ar  
    34    19    20 ar  
    35    20    21 1   
    36    21    22 ar  
    37    21    23 ar  
    38    22    27 ar  
    39    22    40 1   
    40    23    24 ar  
    41    23    41 1   
    42    24    25 1   
    43    24    26 ar  
    44    26    27 ar  
    45    26    42 1   
    46    27    43 1   
@<TRIPOS>SUBSTRUCTURE
     1 2O5         1 TEMP              0 ****  ****    0 ROOT
