@<TRIPOS>MOLECULE
2O5
   43    46     1     0     0
SMALL
No Charge or Current Charge


@<TRIPOS>ATOM
      1 O           -7.0480    -0.6340     1.3600 o          1 2O5      -0.723000
      2 C16         -6.5340    -0.9990     0.3130 c          1 2O5       0.725000
      3 O1          -6.1530    -2.1430     0.1100 o          1 2O5      -0.723000
      4 C15         -6.2160     0.0660    -0.7460 c3         1 2O5      -0.193100
      5 C12         -4.8370     0.6590    -0.4740 ca         1 2O5       0.008700
      6 C11         -3.6890     0.0950    -1.0610 ca         1 2O5      -0.096500
      7 C10         -2.4180     0.6440    -0.8120 ca         1 2O5      -0.130000
      8 C13         -4.6970     1.7840     0.3600 ca         1 2O5      -0.096500
      9 C14         -3.4250     2.3320     0.6070 ca         1 2O5      -0.130000
     10 C9          -2.2750     1.7620     0.0340 ca         1 2O5       0.240000
     11 N3          -1.0330     2.3510     0.3020 nu         1 2O5      -0.902900
     12 C8           0.2800     1.9040     0.3000 ca         1 2O5       0.413900
     13 N1           1.2060     2.8550     0.4970 nb         1 2O5      -0.308000
     14 C7           2.4770     2.4090     0.5030 ca         1 2O5       0.233300
     15 C17          3.5660     3.4170     0.7250 cx         1 2O5      -0.195000
     16 C19          4.7470     3.5380    -0.2160 cx         1 2O5      -0.107400
     17 C18          3.7160     4.6380    -0.1580 cx         1 2O5      -0.107400
     18 N            2.8410     1.1210     0.3410 nb         1 2O5      -0.273000
     19 N2           0.5360     0.5960     0.1300 nb         1 2O5      -0.257000
     20 C6           1.8370     0.2380     0.1540 cp         1 2O5       0.250500
     21 C2           2.1850    -1.2150    -0.0440 cp         1 2O5      -0.149500
     22 C1           1.1760    -2.2020    -0.2350 ca         1 2O5      -0.050000
     23 C3           3.5380    -1.6590    -0.0500 ca         1 2O5      -0.060000
     24 C4           3.8610    -3.0140    -0.2360 ca         1 2O5       0.096000
     25 Cl           5.5460    -3.5220    -0.2360 cl         1 2O5      -0.222000
     26 C5           2.8470    -3.9640    -0.4210 ca         1 2O5      -0.090000
     27 C            1.5040    -3.5570    -0.4200 ca         1 2O5      -0.118000
     28 H2          -6.1800    -0.3920    -1.7420 hc         1 2O5       0.033200
     29 H3          -6.9390     0.8880    -0.6820 hc         1 2O5       0.033200
     30 H4          -3.7810    -0.7690    -1.7150 ha         1 2O5       0.112500
     31 H5          -1.5560     0.2030    -1.3000 ha         1 2O5       0.105000
     32 H6          -5.5740     2.2350     0.8190 ha         1 2O5       0.112500
     33 H7          -3.3380     3.2010     1.2540 ha         1 2O5       0.105000
     34 H8          -1.1000     3.3080     0.6480 hn         1 2O5       0.502000
     35 H9           3.7740     3.5550     1.7830 hc         1 2O5       0.099700
     36 H10          5.7240     3.7340     0.2190 hc         1 2O5       0.076700
     37 H11          4.7630     2.9080    -1.1030 hc         1 2O5       0.076700
     38 H12          3.0420     4.7420    -1.0060 hc         1 2O5       0.076700
     39 H13          3.9990     5.5750     0.3150 hc         1 2O5       0.076700
     40 H14          0.1240    -1.9220    -0.2390 ha         1 2O5       0.157000
     41 H15          4.3530    -0.9530     0.0900 ha         1 2O5       0.148000
     42 H16          3.1010    -5.0110    -0.5640 ha         1 2O5       0.123000
     43 H17          0.7140    -4.2910    -0.5640 ha         1 2O5       0.126000
@<TRIPOS>BOND
     1     1     2 1   
     2     2     3 1   
     3     2     4 1   
     4     4     5 1   
     5     4    28 1   
     6     4    29 1   
     7     5     6 ar  
     8     5     8 ar  
     9     6     7 ar  
    10     6    30 1   
    11     7    10 ar  
    12     7    31 1   
    13     8     9 ar  
    14     8    32 1   
    15     9    10 ar  
    16     9    33 1   
    17    10    11 1   
    18    11    12 1   
    19    11    34 1   
    20    12    13 ar  
    21    12    19 ar  
    22    13    14 ar  
    23    14    15 1   
    24    14    18 ar  
    25    15    16 1   
    26    15    17 1   
    27    15    35 1   
    28    16    17 1   
    29    16    36 1   
    30    16    37 1   
    31    17    38 1   
    32    17    39 1   
    33    18    20 ar  
    34    19    20 ar  
    35    20    21 1   
    36    21    22 ar  
    37    21    23 ar  
    38    22    27 ar  
    39    22    40 1   
    40    23    24 ar  
    41    23    41 1   
    42    24    25 1   
    43    24    26 ar  
    44    26    27 ar  
    45    26    42 1   
    46    27    43 1   
@<TRIPOS>SUBSTRUCTURE
     1 2O5         1 TEMP              0 ****  ****    0 ROOT
