@<TRIPOS>MOLECULE
2O6
   19    20     1     0     0
SMALL
No Charge or Current Charge


@<TRIPOS>ATOM
      1 N1          -3.6000     0.0170    -0.0380 nc         1 2O6      -0.370700
      2 C1           1.0400    -0.2460     0.0060 ca         1 2O6      -0.241300
      3 C2           0.7270    -1.6280     0.1380 ca         1 2O6      -0.020000
      4 O1          -2.9730    -1.3100     0.0830 os         1 2O6      -0.104100
      5 C3          -0.6150    -2.0640     0.1690 ca         1 2O6      -0.128000
      6 C4          -1.6190    -1.0970     0.0720 ca         1 2O6       0.127100
      7 C5          -1.3260     0.2230    -0.0440 ca         1 2O6      -0.286900
      8 C6          -0.0100     0.7030    -0.0810 ca         1 2O6       0.029000
      9 C7           2.5000     0.2140    -0.0160 c3         1 2O6       0.362300
     10 C8          -2.5910     0.8760    -0.1090 cd         1 2O6       0.595800
     11 F1           3.3130    -0.6920    -0.6080 f          1 2O6      -0.113333
     12 F2           2.6660     1.3770    -0.6880 f          1 2O6      -0.113333
     13 F3           2.9720     0.4090     1.2350 f          1 2O6      -0.113333
     14 H1           1.5230    -2.3670     0.2200 ha         1 2O6       0.133000
     15 H2          -2.0980     2.8380     0.0230 hn         1 2O6       0.475500
     16 H3          -3.7900     2.5020    -0.0140 hn         1 2O6       0.475500
     17 H4          -0.8630    -3.1180     0.2670 ha         1 2O6       0.146000
     18 H5           0.1900     1.7700    -0.1710 ha         1 2O6       0.137000
     19 N2          -2.8440     2.1950    -0.2160 nv         1 2O6      -0.988200
@<TRIPOS>BOND
     1     1     4 1   
     2     1    10 2   
     3     2     3 ar  
     4     2     8 ar  
     5     2     9 1   
     6     3     5 ar  
     7     3    14 1   
     8     4     6 1   
     9     5     6 ar  
    10     5    17 1   
    11     6     7 ar  
    12     7     8 ar  
    13     7    10 1   
    14     8    18 1   
    15     9    11 1   
    16     9    12 1   
    17     9    13 1   
    18    10    19 1   
    19    15    19 1   
    20    16    19 1   
@<TRIPOS>SUBSTRUCTURE
     1 2O6         1 TEMP              0 ****  ****    0 ROOT
