@<TRIPOS>MOLECULE
2O6
   19    20     1     0     0
SMALL
bcc


@<TRIPOS>ATOM
      1 N1          -3.5320    -0.0340    -0.0040 nc         1 2O6      -0.469200
      2 C1           1.0160    -0.2230     0.0100 ca         1 2O6      -0.241300
      3 C2           0.7120    -1.5880     0.1700 ca         1 2O6      -0.038000
      4 O1          -2.9000    -1.2680     0.1270 os         1 2O6      -0.005600
      5 C3          -0.5880    -2.0440     0.2220 ca         1 2O6      -0.146000
      6 C4          -1.5820    -1.0780     0.1120 ca         1 2O6       0.127100
      7 C5          -1.2980     0.2680    -0.0390 ca         1 2O6      -0.286900
      8 C6           0.0140     0.7230    -0.0960 ca         1 2O6       0.011000
      9 C7           2.4550     0.1790    -0.0170 c3         1 2O6       0.726200
     10 C8          -2.6030     0.8720    -0.1100 cd         1 2O6       0.595800
     11 F1           3.1620    -0.5520    -0.8910 f          1 2O6      -0.234633
     12 F2           2.6250     1.4620    -0.3510 f          1 2O6      -0.234633
     13 F3           3.0410     0.0060     1.1780 f          1 2O6      -0.234633
     14 H1           1.5120    -2.3120     0.2520 ha         1 2O6       0.151000
     15 H2          -2.1730     2.8380     0.0070 hn         1 2O6       0.420300
     16 H3          -3.8100     2.4880    -0.1420 hn         1 2O6       0.420300
     17 H4          -0.8130    -3.0940     0.3410 ha         1 2O6       0.164000
     18 H5           0.2290     1.7760    -0.2210 ha         1 2O6       0.155000
     19 N2          -2.8650     2.1840    -0.3200 nv         1 2O6      -0.877800
@<TRIPOS>BOND
     1     1     4 1   
     2     1    10 2   
     3     2     3 ar  
     4     2     8 ar  
     5     2     9 1   
     6     3     5 ar  
     7     3    14 1   
     8     4     6 1   
     9     5     6 ar  
    10     5    17 1   
    11     6     7 ar  
    12     7     8 ar  
    13     7    10 1   
    14     8    18 1   
    15     9    11 1   
    16     9    12 1   
    17     9    13 1   
    18    10    19 1   
    19    15    19 1   
    20    16    19 1   
@<TRIPOS>SUBSTRUCTURE
     1 2O6         1 TEMP              0 ****  ****    0 ROOT
