@<TRIPOS>MOLECULE
2O7
   43    46     1     0     0
SMALL
bcc


@<TRIPOS>ATOM
      1 C1           0.6090     3.2290     0.4990 c5         1 2O7       0.137600
      2 C3          -0.2790     1.1970     1.4560 c5         1 2O7       0.099000
      3 C9           0.8710     2.0950    -0.4970 c5         1 2O7      -0.081400
      4 C12          1.1270     2.8170     2.7400 c          1 2O7       0.704700
      5 C13          2.0130     3.9210     2.2450 ce         1 2O7      -0.055400
      6 C14          1.7690     4.0760     0.9360 cf         1 2O7       0.007100
      7 C15          2.4350     4.9550     0.0490 ch         1 2O7       0.200500
      8 C20          4.6750     4.6800     4.7520 ca         1 2O7       0.027900
      9 C21          4.7600     6.0620     4.6790 ca         1 2O7      -0.100000
     10 C24          3.0200     6.0340     3.0010 ca         1 2O7      -0.089000
     11 O28          1.1710     2.2880     3.8310 o          1 2O7      -0.583500
     12 C32         -0.9210     5.1660     1.0700 ca         1 2O7      -0.067300
     13 C33         -1.6770     4.8300     2.1920 ca         1 2O7      -0.123500
     14 C35         -1.9330     5.7630     3.1810 ca         1 2O7      -0.090000
     15 N2           0.3070     2.5050     1.7140 n          1 2O7      -0.463800
     16 C6          -0.1650     1.0470    -0.0730 c5         1 2O7      -0.099400
     17 N16          2.9640     5.6500    -0.7020 n1         1 2O7      -0.337800
     18 C17          2.9580     4.6450     3.0880 ca         1 2O7      -0.038800
     19 C18          3.7810     3.9600     3.9790 ca         1 2O7      -0.089000
     20 C23          3.9190     6.7220     3.7970 ca         1 2O7       0.027900
     21 CL26         3.9890     8.4440     3.6960 cl         1 2O7      -0.090400
     22 C29         -0.5700     4.1270     0.0470 c3         1 2O7      -0.022100
     23 C37         -1.4350     7.0580     3.0510 ca         1 2O7      -0.012000
     24 C38         -0.6980     7.4180     1.9230 ca         1 2O7      -0.090000
     25 C40         -0.4500     6.4720     0.9450 ca         1 2O7      -0.123500
     26 C42         -1.6910     8.0250     4.0690 cg         1 2O7       0.231800
     27 N43         -1.8990     8.8080     4.8880 n1         1 2O7      -0.356800
     28 H31         -1.3130     1.1450     1.7990 h1         1 2O7       0.062200
     29 H32          0.2900     0.4350     1.9900 h1         1 2O7       0.062200
     30 H91          1.8860     1.7160    -0.3600 hc         1 2O7       0.066200
     31 H92          0.7610     2.4110    -1.5330 hc         1 2O7       0.066200
     32 H21          5.4600     6.6090     5.2940 ha         1 2O7       0.165000
     33 H24          2.3550     6.5750     2.3410 ha         1 2O7       0.161000
     34 H33         -2.0770     3.8300     2.2960 ha         1 2O7       0.141000
     35 H35         -2.5180     5.4900     4.0490 ha         1 2O7       0.147500
     36 H61         -1.1250     1.2470    -0.5480 hc         1 2O7       0.058700
     37 H62          0.1330     0.0390    -0.3560 hc         1 2O7       0.058700
     38 H18          3.7410     2.8830     4.0530 ha         1 2O7       0.161000
     39 H291        -1.4300     3.4860    -0.1600 hc         1 2O7       0.064200
     40 H292        -0.2930     4.5980    -0.8990 hc         1 2O7       0.064200
     41 H38         -0.3250     8.4270     1.8130 ha         1 2O7       0.147500
     42 H40          0.1160     6.7630     0.0680 ha         1 2O7       0.141000
     43 CL27         5.7140     3.8370     5.8430 cl         1 2O7      -0.090400
@<TRIPOS>BOND
     1     1     3 1   
     2     1     6 1   
     3     1    15 1   
     4     1    22 1   
     5     2    15 1   
     6     2    16 1   
     7     2    28 1   
     8     2    29 1   
     9     3    16 1   
    10     3    30 1   
    11     3    31 1   
    12     4     5 1   
    13     4    11 2   
    14     4    15 1   
    15     5     6 2   
    16     5    18 1   
    17     6     7 1   
    18     7    17 3   
    19     8     9 ar  
    20     8    19 ar  
    21     8    43 1   
    22     9    20 ar  
    23     9    32 1   
    24    10    18 ar  
    25    10    20 ar  
    26    10    33 1   
    27    12    13 ar  
    28    12    22 1   
    29    12    25 ar  
    30    13    14 ar  
    31    13    34 1   
    32    14    23 ar  
    33    14    35 1   
    34    16    36 1   
    35    16    37 1   
    36    18    19 ar  
    37    19    38 1   
    38    20    21 1   
    39    22    39 1   
    40    22    40 1   
    41    23    24 ar  
    42    23    26 1   
    43    24    25 ar  
    44    24    41 1   
    45    25    42 1   
    46    26    27 3   
@<TRIPOS>SUBSTRUCTURE
     1 2O7         1 TEMP              0 ****  ****    0 ROOT
