@<TRIPOS>MOLECULE
2O7
   43    46     1     0     0
SMALL
No Charge or Current Charge


@<TRIPOS>ATOM
      1 C1           0.5300     3.2420     0.5220 c5         1 2O7       0.137600
      2 C3          -0.0770     1.0540     1.4940 c5         1 2O7       0.099000
      3 C9           0.9500     2.0940    -0.4390 c5         1 2O7      -0.081400
      4 C12          1.0930     2.8640     2.7750 c          1 2O7       0.562200
      5 C13          1.9800     3.9280     2.2360 ce         1 2O7      -0.055400
      6 C14          1.7400     4.1410     0.9090 cf         1 2O7       0.007100
      7 C15          2.4210     5.0440     0.0350 ch         1 2O7       0.289700
      8 C20          4.8510     4.4570     4.6840 ca         1 2O7       0.119500
      9 C21          4.8950     5.8580     4.7600 ca         1 2O7      -0.082000
     10 C24          3.0400     5.9930     3.1900 ca         1 2O7      -0.071000
     11 O28          1.1170     2.3610     3.8900 o          1 2O7      -0.508000
     12 C32         -1.0370     5.2190     1.0590 ca         1 2O7      -0.067300
     13 C33         -1.7310     4.9310     2.2500 ca         1 2O7      -0.105500
     14 C35         -2.0140     5.9530     3.1730 ca         1 2O7      -0.072000
     15 N2           0.2650     2.4700     1.7360 n          1 2O7      -0.396800
     16 C6          -0.0880     0.9930    -0.0610 c5         1 2O7      -0.099400
     17 N16          2.9470     5.8090    -0.6730 n1         1 2O7      -0.427000
     18 C17          2.9910     4.5870     3.1100 ca         1 2O7      -0.038800
     19 C18          3.9030     3.8220     3.8640 ca         1 2O7      -0.071000
     20 C23          3.9880     6.6240     4.0120 ca         1 2O7       0.119500
     21 Cl26         4.0350     8.3790     4.1060 cl         1 2O7      -0.182000
     22 C29         -0.6920     4.0990     0.0780 c3         1 2O7      -0.022100
     23 C37         -1.6080     7.2750     2.9120 ca         1 2O7      -0.012000
     24 C38         -0.9230     7.5680     1.7180 ca         1 2O7      -0.072000
     25 C40         -0.6410     6.5450     0.7950 ca         1 2O7      -0.105500
     26 C42         -1.8920     8.3190     3.8580 cg         1 2O7       0.321000
     27 N43         -2.1140     9.1680     4.6290 n1         1 2O7      -0.446000
     28 H31         -1.0480     0.7830     1.9280 h1         1 2O7       0.062200
     29 H32          0.6910     0.3900     1.9140 h1         1 2O7       0.062200
     30 H91          1.9740     1.7530    -0.2410 hc         1 2O7       0.066200
     31 H92          0.9000     2.3830    -1.4950 hc         1 2O7       0.066200
     32 H21          5.6280     6.3470     5.3950 ha         1 2O7       0.147000
     33 H24          2.3380     6.5980     2.6220 ha         1 2O7       0.143000
     34 H33         -2.0450     3.9120     2.4660 ha         1 2O7       0.123000
     35 H35         -2.5460     5.7130     4.0920 ha         1 2O7       0.129500
     36 H61         -1.0820     1.2190    -0.4620 hc         1 2O7       0.058700
     37 H62          0.1910     0.0030    -0.4380 hc         1 2O7       0.058700
     38 H18          3.8830     2.7360     3.8120 ha         1 2O7       0.143000
     39 H291        -1.5720     3.4600    -0.0550 hc         1 2O7       0.064200
     40 H292        -0.4920     4.5250    -0.9120 hc         1 2O7       0.064200
     41 H38         -0.6060     8.5870     1.5030 ha         1 2O7       0.129500
     42 H40         -0.1070     6.7870    -0.1210 ha         1 2O7       0.123000
     43 Cl27         5.9860     3.4920     5.6190 cl         1 2O7      -0.182000
@<TRIPOS>BOND
     1     1     3 1   
     2     1     6 1   
     3     1    15 1   
     4     1    22 1   
     5     2    15 1   
     6     2    16 1   
     7     2    28 1   
     8     2    29 1   
     9     3    16 1   
    10     3    30 1   
    11     3    31 1   
    12     4     5 1   
    13     4    11 2   
    14     4    15 1   
    15     5     6 2   
    16     5    18 1   
    17     6     7 1   
    18     7    17 3   
    19     8     9 ar  
    20     8    19 ar  
    21     8    43 1   
    22     9    20 ar  
    23     9    32 1   
    24    10    18 ar  
    25    10    20 ar  
    26    10    33 1   
    27    12    13 ar  
    28    12    22 1   
    29    12    25 ar  
    30    13    14 ar  
    31    13    34 1   
    32    14    23 ar  
    33    14    35 1   
    34    16    36 1   
    35    16    37 1   
    36    18    19 ar  
    37    19    38 1   
    38    20    21 1   
    39    22    39 1   
    40    22    40 1   
    41    23    24 ar  
    42    23    26 1   
    43    24    25 ar  
    44    24    41 1   
    45    25    42 1   
    46    26    27 3   
@<TRIPOS>SUBSTRUCTURE
     1 2O7         1 TEMP              0 ****  ****    0 ROOT
