@<TRIPOS>MOLECULE
2O8
   20    20     1     0     0
SMALL
No Charge or Current Charge


@<TRIPOS>ATOM
      1 O           -4.7470     0.9180     0.8460 o          1 2O8      -0.595100
      2 C01         -0.4850     1.1220     1.2430 ca         1 2O8      -0.057000
      3 C02          0.3100     0.2650     0.4640 ca         1 2O8      -0.129000
      4 N           -4.6330    -0.6870    -0.6760 nt         1 2O8      -0.601000
      5 C03         -4.0430     0.1800     0.1770 c          1 2O8       0.613700
      6 F01          2.5030    -0.3890    -1.8670 f          1 2O8      -0.096667
      7 F02          2.5850    -2.0180    -0.4150 f          1 2O8      -0.096667
      8 F            4.2310    -0.6120    -0.5710 f          1 2O8      -0.096667
      9 C04          2.8840    -0.7150    -0.6110 c3         1 2O8       0.422000
     10 C05         -0.3210    -0.6360    -0.4200 ca         1 2O8      -0.057000
     11 S            2.0990     0.3810     0.6620 ss         1 2O8      -0.183000
     12 C06         -1.8860     1.0880     1.1440 ca         1 2O8      -0.088500
     13 C07         -2.5290     0.1920     0.2610 ca         1 2O8      -0.114600
     14 C           -1.7240    -0.6710    -0.5200 ca         1 2O8      -0.088500
     15 H1          -0.0150     1.8210     1.9310 ha         1 2O8       0.136000
     16 H2          -5.6400    -0.7030    -0.7390 hn         1 2O8       0.317500
     17 H3          -4.0760    -1.3080    -1.2400 hn         1 2O8       0.317500
     18 H4           0.2520    -1.3200    -1.0370 ha         1 2O8       0.136000
     19 H5          -2.4740     1.7660     1.7610 ha         1 2O8       0.131500
     20 H6          -2.1700    -1.3800    -1.2130 ha         1 2O8       0.131500
@<TRIPOS>BOND
     1     1     5 2   
     2     2     3 ar  
     3     2    12 ar  
     4     2    15 1   
     5     3    10 ar  
     6     3    11 1   
     7     4     5 1   
     8     4    16 1   
     9     4    17 1   
    10     5    13 1   
    11     6     9 1   
    12     7     9 1   
    13     8     9 1   
    14     9    11 1   
    15    10    14 ar  
    16    10    18 1   
    17    12    13 ar  
    18    12    19 1   
    19    13    14 ar  
    20    14    20 1   
@<TRIPOS>SUBSTRUCTURE
     1 2O8         1 TEMP              0 ****  ****    0 ROOT
