@<TRIPOS>MOLECULE
2O8
   20    20     1     0     0
SMALL
abcg2


@<TRIPOS>ATOM
      1 O           -4.4730     1.1900     0.6630 o          1 2O8      -0.595100
      2 C01         -0.2950     0.9610     0.8930 ca         1 2O8      -0.057000
      3 C02          0.2930    -0.2770     0.6570 ca         1 2O8      -0.129000
      4 N           -4.5290    -0.5210    -0.8040 nt         1 2O8      -0.601000
      5 C03         -3.9040     0.2940     0.0550 c          1 2O8       0.613700
      6 F01          2.3540     1.0450    -1.1150 f          1 2O8      -0.096667
      7 F02          2.2190    -1.0380    -1.5830 f          1 2O8      -0.096667
      8 F            3.9880    -0.2730    -0.6140 f          1 2O8      -0.096667
      9 C04          2.6620    -0.1720    -0.6720 c3         1 2O8       0.422000
     10 C05         -0.4780    -1.3510     0.2320 ca         1 2O8      -0.057000
     11 S            2.0240    -0.5010     0.9760 ss         1 2O8      -0.183000
     12 C06         -1.6560     1.1210     0.6940 ca         1 2O8      -0.088500
     13 C07         -2.4350     0.0590     0.2410 ca         1 2O8      -0.114600
     14 C           -1.8370    -1.1780     0.0190 ca         1 2O8      -0.088500
     15 H1           0.3010     1.7940     1.2390 ha         1 2O8       0.136000
     16 H2          -5.5150    -0.4060    -0.9750 hn         1 2O8       0.317500
     17 H3          -4.0400    -1.1760    -1.3890 hn         1 2O8       0.317500
     18 H4          -0.0290    -2.3230     0.0750 ha         1 2O8       0.136000
     19 H5          -2.1110     2.0830     0.8860 ha         1 2O8       0.131500
     20 H6          -2.4160    -2.0360    -0.2970 ha         1 2O8       0.131500
@<TRIPOS>BOND
     1     1     5 2   
     2     2     3 ar  
     3     2    12 ar  
     4     2    15 1   
     5     3    10 ar  
     6     3    11 1   
     7     4     5 1   
     8     4    16 1   
     9     4    17 1   
    10     5    13 1   
    11     6     9 1   
    12     7     9 1   
    13     8     9 1   
    14     9    11 1   
    15    10    14 ar  
    16    10    18 1   
    17    12    13 ar  
    18    12    19 1   
    19    13    14 ar  
    20    14    20 1   
@<TRIPOS>SUBSTRUCTURE
     1 2O8         1 TEMP              0 ****  ****    0 ROOT
