@<TRIPOS>MOLECULE
2OB
  125   128     1     0     0
SMALL
No Charge or Current Charge


@<TRIPOS>ATOM
      1 O2           3.3930    -1.5540    -2.6170 o          1 2OB      -0.492000
      2 C48          4.6100    -1.4400    -2.6710 c          1 2OB       0.596100
      3 O1           5.2700    -0.2610    -2.8960 os         1 2OB      -0.457100
      4 C3           4.5610     0.9200    -3.3190 c6         1 2OB       0.177300
      5 C2           5.4100     2.1630    -2.9960 c6         1 2OB      -0.077400
      6 C4           4.2720     0.8450    -4.8380 c6         1 2OB      -0.057200
      7 C5           3.6840     2.1350    -5.4180 c2         1 2OB      -0.115400
      8 C10          4.3710     3.4600    -5.0140 c6         1 2OB       0.003200
      9 C9           3.4050     4.6800    -5.3210 c6         1 2OB      -0.044700
     10 C11          4.0450     6.0860    -5.0390 c6         1 2OB      -0.070400
     11 C12          3.0930     7.2700    -5.3730 c6         1 2OB      -0.061400
     12 C13          2.5850     7.2180    -6.8480 c5         1 2OB      -0.039000
     13 C18          3.7900     7.5080    -7.8060 c3         1 2OB      -0.079100
     14 C17          1.3260     8.1120    -7.1790 c5         1 2OB      -0.052700
     15 C20          1.5030     9.6650    -7.3250 c3         1 2OB      -0.047700
     16 C22          0.1720    10.3890    -7.7710 c3         1 2OB      -0.074400
     17 C23         -1.0730    10.3170    -6.8160 c3         1 2OB      -0.076400
     18 C24         -2.2950    11.0950    -7.3650 c3         1 2OB      -0.071400
     19 C25         -3.5710    11.0590    -6.4780 c3         1 2OB      -0.058700
     20 C27         -3.3670    11.7370    -5.1030 c3         1 2OB      -0.086600
     21 C26         -4.1590     9.6370    -6.3270 c3         1 2OB      -0.086600
     22 C21          2.0870    10.3650    -6.0740 c3         1 2OB      -0.086100
     23 C16          0.7680     7.4240    -8.5060 c5         1 2OB      -0.075400
     24 C15          1.2770     5.9480    -8.4610 c5         1 2OB      -0.072400
     25 C14          1.8940     5.8290    -7.0440 c5         1 2OB      -0.064700
     26 C8           2.8080     4.5990    -6.7670 c6         1 2OB      -0.045700
     27 C7           2.0100     3.2790    -6.9480 c6         1 2OB      -0.040200
     28 C6           2.6550     2.0760    -6.2830 c2         1 2OB      -0.208200
     29 C19          5.7000     3.5390    -5.8450 c3         1 2OB      -0.081100
     30 C1           4.7030     3.4510    -3.4800 c6         1 2OB      -0.066400
     31 C47          5.5860    -2.6130    -2.5240 c3         1 2OB      -0.136400
     32 C46          5.6290    -3.5010    -3.7980 c3         1 2OB      -0.069400
     33 C45          5.7940    -2.7050    -5.1150 c3         1 2OB      -0.081400
     34 C44          5.8290    -3.5920    -6.3800 c3         1 2OB      -0.072400
     35 C43          5.8270    -2.7950    -7.7090 c3         1 2OB      -0.072400
     36 C42          4.5130    -2.0190    -7.9800 c3         1 2OB      -0.075400
     37 C41          4.4740    -1.3280    -9.3580 c3         1 2OB      -0.043200
     38 C40          3.1680    -0.5820    -9.5840 c2         1 2OB      -0.220200
     39 C39          2.9950     0.6040   -10.1960 c2         1 2OB      -0.213200
     40 C38          4.0540     1.4780   -10.8420 c3         1 2OB      -0.042200
     41 C37          4.2650     2.8010   -10.0790 c3         1 2OB      -0.078400
     42 C36          5.3630     3.6880   -10.7060 c3         1 2OB      -0.073400
     43 C35          5.5210     5.0470    -9.9950 c3         1 2OB      -0.077400
     44 C34          6.6310     5.9290   -10.6070 c3         1 2OB      -0.074400
     45 C33          6.7690     7.2970    -9.9050 c3         1 2OB      -0.076400
     46 C32          7.8970     8.1710   -10.4920 c3         1 2OB      -0.074400
     47 C31          8.0270     9.5370    -9.7910 c3         1 2OB      -0.088100
     48 H3           3.6120     0.9970    -2.7650 h1         1 2OB       0.073700
     49 H21          6.4050     2.0720    -3.4500 hc         1 2OB       0.052200
     50 H22          5.5710     2.2220    -1.9110 hc         1 2OB       0.052200
     51 H41          3.5960     0.0040    -5.0360 hc         1 2OB       0.056700
     52 H42          5.2050     0.6110    -5.3670 hc         1 2OB       0.056700
     53 H9           2.5500     4.5910    -4.6350 hc         1 2OB       0.046700
     54 H111         4.9800     6.2090    -5.5970 hc         1 2OB       0.039200
     55 H112         4.3190     6.1690    -3.9800 hc         1 2OB       0.039200
     56 H121         2.2380     7.2490    -4.6840 hc         1 2OB       0.040200
     57 H122         3.6250     8.2060    -5.1690 hc         1 2OB       0.040200
     58 H181         4.5630     6.7370    -7.7450 hc         1 2OB       0.032700
     59 H182         3.4900     7.5770    -8.8570 hc         1 2OB       0.032700
     60 H183         4.2690     8.4620    -7.5550 hc         1 2OB       0.032700
     61 H17          0.5880     7.9830    -6.3770 hc         1 2OB       0.045700
     62 H20          2.2190     9.8440    -8.1370 hc         1 2OB       0.044700
     63 H221         0.4040    11.4480    -7.9440 hc         1 2OB       0.036200
     64 H222        -0.1280    10.0030    -8.7520 hc         1 2OB       0.036200
     65 H231        -1.3470     9.2670    -6.6700 hc         1 2OB       0.040700
     66 H232        -0.7920    10.7180    -5.8360 hc         1 2OB       0.040700
     67 H241        -2.5480    10.6990    -8.3570 hc         1 2OB       0.035200
     68 H242        -2.0060    12.1420    -7.5190 hc         1 2OB       0.035200
     69 H25         -4.3270    11.6530    -7.0070 hc         1 2OB       0.041700
     70 H271        -2.6800    11.1600    -4.4720 hc         1 2OB       0.031700
     71 H272        -4.3230    11.8210    -4.5710 hc         1 2OB       0.031700
     72 H273        -2.9590    12.7470    -5.2240 hc         1 2OB       0.031700
     73 H261        -3.4990     8.9930    -5.7340 hc         1 2OB       0.031700
     74 H262        -5.1330     9.6750    -5.8240 hc         1 2OB       0.031700
     75 H263        -4.3060     9.1710    -7.3090 hc         1 2OB       0.031700
     76 H211         1.5850    10.0260    -5.1600 hc         1 2OB       0.032367
     77 H212         1.9700    11.4530    -6.1440 hc         1 2OB       0.032367
     78 H213         3.1600    10.1710    -5.9850 hc         1 2OB       0.032367
     79 H161         1.0850     7.8950    -9.4580 hc         1 2OB       0.040700
     80 H162        -0.3270     7.4560    -8.5140 hc         1 2OB       0.040700
     81 H151         0.4640     5.2310    -8.6170 hc         1 2OB       0.041200
     82 H152         2.0200     5.7570    -9.2430 hc         1 2OB       0.041200
     83 H14          1.0790     5.7200    -6.3150 hc         1 2OB       0.044700
     84 H8           3.6260     4.6090    -7.4970 hc         1 2OB       0.054700
     85 H71          1.8790     3.0750    -8.0190 hc         1 2OB       0.048200
     86 H72          0.9980     3.3890    -6.5340 hc         1 2OB       0.048200
     87 H6           2.2240     1.1130    -6.5600 ha         1 2OB       0.175000
     88 H191         6.3020     4.4150    -5.5810 hc         1 2OB       0.035033
     89 H192         6.3400     2.6660    -5.6810 hc         1 2OB       0.035033
     90 H193         5.5100     3.5770    -6.9220 hc         1 2OB       0.035033
     91 H11          3.7760     3.5740    -2.9020 hc         1 2OB       0.044200
     92 H12          5.3380     4.3080    -3.2210 hc         1 2OB       0.044200
     93 H471         5.2740    -3.2330    -1.6760 hc         1 2OB       0.070700
     94 H472         6.5940    -2.2220    -2.3470 hc         1 2OB       0.070700
     95 H461         4.6980    -4.0800    -3.8530 hc         1 2OB       0.051200
     96 H462         6.4460    -4.2270    -3.7020 hc         1 2OB       0.051200
     97 H451         6.7090    -2.1000    -5.0680 hc         1 2OB       0.042200
     98 H452         4.9550    -2.0100    -5.2040 hc         1 2OB       0.042200
     99 H441         6.7280    -4.2210    -6.3450 hc         1 2OB       0.039200
    100 H442         4.9700    -4.2730    -6.3730 hc         1 2OB       0.039200
    101 H431         6.6730    -2.0960    -7.7160 hc         1 2OB       0.037200
    102 H432         5.9950    -3.5000    -8.5330 hc         1 2OB       0.037200
    103 H421         3.6660    -2.7120    -7.9010 hc         1 2OB       0.041200
    104 H422         4.3700    -1.2490    -7.2130 hc         1 2OB       0.041200
    105 H411         4.5990    -2.0890   -10.1390 hc         1 2OB       0.043200
    106 H412         5.3360    -0.6560    -9.4320 hc         1 2OB       0.043200
    107 H40          2.2940    -1.0980    -9.1810 ha         1 2OB       0.166000
    108 H39          1.9880     1.0180   -10.2750 ha         1 2OB       0.164000
    109 H381         3.7540     1.7070   -11.8720 hc         1 2OB       0.045200
    110 H382         5.0130     0.9540   -10.9210 hc         1 2OB       0.045200
    111 H371         3.3200     3.3570   -10.0570 hc         1 2OB       0.042200
    112 H372         4.5300     2.5770    -9.0380 hc         1 2OB       0.042200
    113 H361         6.3190     3.1510   -10.6780 hc         1 2OB       0.037200
    114 H362         5.1240     3.8640   -11.7620 hc         1 2OB       0.037200
    115 H351         5.7450     4.8750    -8.9350 hc         1 2OB       0.037700
    116 H352         4.5670     5.5850   -10.0400 hc         1 2OB       0.037700
    117 H341         7.5870     5.3940   -10.5470 hc         1 2OB       0.037200
    118 H342         6.4190     6.0900   -11.6710 hc         1 2OB       0.037200
    119 H331         5.8190     7.8390    -9.9860 hc         1 2OB       0.036700
    120 H332         6.9570     7.1370    -8.8360 hc         1 2OB       0.036700
    121 H321         7.7120     8.3350   -11.5610 hc         1 2OB       0.036700
    122 H322         8.8520     7.6360   -10.4110 hc         1 2OB       0.036700
    123 H311         8.2470     9.4060    -8.7250 hc         1 2OB       0.031367
    124 H312         8.8380    10.1220   -10.2410 hc         1 2OB       0.031367
    125 H313         7.0970    10.1110    -9.8850 hc         1 2OB       0.031367
@<TRIPOS>BOND
     1     1     2 2   
     2     2     3 1   
     3     2    31 1   
     4     3     4 1   
     5     4     5 1   
     6     4     6 1   
     7     4    48 1   
     8     5    30 1   
     9     5    49 1   
    10     5    50 1   
    11     6     7 1   
    12     6    51 1   
    13     6    52 1   
    14     7     8 1   
    15     7    28 2   
    16     8     9 1   
    17     8    29 1   
    18     8    30 1   
    19     9    10 1   
    20     9    26 1   
    21     9    53 1   
    22    10    11 1   
    23    10    54 1   
    24    10    55 1   
    25    11    12 1   
    26    11    56 1   
    27    11    57 1   
    28    12    13 1   
    29    12    14 1   
    30    12    25 1   
    31    13    58 1   
    32    13    59 1   
    33    13    60 1   
    34    14    15 1   
    35    14    23 1   
    36    14    61 1   
    37    15    16 1   
    38    15    22 1   
    39    15    62 1   
    40    16    17 1   
    41    16    63 1   
    42    16    64 1   
    43    17    18 1   
    44    17    65 1   
    45    17    66 1   
    46    18    19 1   
    47    18    67 1   
    48    18    68 1   
    49    19    20 1   
    50    19    21 1   
    51    19    69 1   
    52    20    70 1   
    53    20    71 1   
    54    20    72 1   
    55    21    73 1   
    56    21    74 1   
    57    21    75 1   
    58    22    76 1   
    59    22    77 1   
    60    22    78 1   
    61    23    24 1   
    62    23    79 1   
    63    23    80 1   
    64    24    25 1   
    65    24    81 1   
    66    24    82 1   
    67    25    26 1   
    68    25    83 1   
    69    26    27 1   
    70    26    84 1   
    71    27    28 1   
    72    27    85 1   
    73    27    86 1   
    74    28    87 1   
    75    29    88 1   
    76    29    89 1   
    77    29    90 1   
    78    30    91 1   
    79    30    92 1   
    80    31    32 1   
    81    31    93 1   
    82    31    94 1   
    83    32    33 1   
    84    32    95 1   
    85    32    96 1   
    86    33    34 1   
    87    33    97 1   
    88    33    98 1   
    89    34    35 1   
    90    34    99 1   
    91    34   100 1   
    92    35    36 1   
    93    35   101 1   
    94    35   102 1   
    95    36    37 1   
    96    36   103 1   
    97    36   104 1   
    98    37    38 1   
    99    37   105 1   
   100    37   106 1   
   101    38    39 2   
   102    38   107 1   
   103    39    40 1   
   104    39   108 1   
   105    40    41 1   
   106    40   109 1   
   107    40   110 1   
   108    41    42 1   
   109    41   111 1   
   110    41   112 1   
   111    42    43 1   
   112    42   113 1   
   113    42   114 1   
   114    43    44 1   
   115    43   115 1   
   116    43   116 1   
   117    44    45 1   
   118    44   117 1   
   119    44   118 1   
   120    45    46 1   
   121    45   119 1   
   122    45   120 1   
   123    46    47 1   
   124    46   121 1   
   125    46   122 1   
   126    47   123 1   
   127    47   124 1   
   128    47   125 1   
@<TRIPOS>SUBSTRUCTURE
     1 2OB         1 TEMP              0 ****  ****    0 ROOT
