@<TRIPOS>MOLECULE
2OB
  125   128     1     0     0
SMALL
bcc


@<TRIPOS>ATOM
      1 O2           4.0270    -1.5020    -2.8550 o          1 2OB      -0.541000
      2 C48          5.2020    -1.2810    -3.0250 c          1 2OB       0.645100
      3 O1           5.7010    -0.0820    -3.2980 os         1 2OB      -0.433900
      4 C3           4.8150     1.0090    -3.6100 c6         1 2OB       0.154100
      5 C2           5.4140     2.2870    -3.0630 c6         1 2OB      -0.077400
      6 C4           4.6600     1.0880    -5.1240 c6         1 2OB      -0.057200
      7 C5           3.8720     2.3020    -5.5370 c2         1 2OB      -0.115400
      8 C10          4.3450     3.6360    -4.9850 c6         1 2OB       0.003200
      9 C9           3.2720     4.7270    -5.2380 c6         1 2OB      -0.044700
     10 C11          3.7400     6.1340    -4.8430 c6         1 2OB      -0.070400
     11 C12          2.7510     7.2480    -5.1920 c6         1 2OB      -0.061400
     12 C13          2.3610     7.2060    -6.6700 c5         1 2OB      -0.039000
     13 C18          3.5740     7.4790    -7.5630 c3         1 2OB      -0.079100
     14 C17          1.1670     8.0940    -7.0980 c5         1 2OB      -0.052700
     15 C20          1.4070     9.5880    -7.3360 c3         1 2OB      -0.047700
     16 C22          0.1480    10.2910    -7.8700 c3         1 2OB      -0.074400
     17 C23         -1.0440    10.3240    -6.9200 c3         1 2OB      -0.076400
     18 C24         -2.2390    11.0400    -7.5430 c3         1 2OB      -0.071400
     19 C25         -3.4780    11.1670    -6.6490 c3         1 2OB      -0.058700
     20 C27         -3.2100    12.0140    -5.4080 c3         1 2OB      -0.086600
     21 C26         -4.0530     9.8060    -6.2640 c3         1 2OB      -0.086600
     22 C21          1.9350    10.3110    -6.0980 c3         1 2OB      -0.086100
     23 C16          0.6180     7.3760    -8.3570 c5         1 2OB      -0.075400
     24 C15          1.1150     5.9180    -8.2940 c5         1 2OB      -0.072400
     25 C14          1.7620     5.8120    -6.9180 c5         1 2OB      -0.064700
     26 C8           2.7210     4.6630    -6.6720 c6         1 2OB      -0.045700
     27 C7           2.0340     3.3210    -6.8920 c6         1 2OB      -0.040200
     28 C6           2.8310     2.1790    -6.3590 c2         1 2OB      -0.158200
     29 C19          5.6890     3.9940    -5.6420 c3         1 2OB      -0.081100
     30 C1           4.5460     3.4760    -3.4620 c6         1 2OB      -0.066400
     31 C47          6.2600    -2.3530    -3.0070 c3         1 2OB      -0.136400
     32 C46          5.9670    -3.3890    -4.0990 c3         1 2OB      -0.069400
     33 C45          5.9060    -2.7860    -5.4980 c3         1 2OB      -0.081400
     34 C44          5.5010    -3.7950    -6.5650 c3         1 2OB      -0.072400
     35 C43          5.3580    -3.1970    -7.9630 c3         1 2OB      -0.072400
     36 C42          4.3050    -2.0960    -8.0630 c3         1 2OB      -0.075400
     37 C41          4.0140    -1.6790    -9.5050 c3         1 2OB      -0.043200
     38 C40          2.9270    -0.6530    -9.5880 c2         1 2OB      -0.170200
     39 C39          3.0420     0.6170    -9.9740 c2         1 2OB      -0.163200
     40 C38          4.2850     1.3310   -10.4110 c3         1 2OB      -0.042200
     41 C37          4.3520     2.7540    -9.8590 c3         1 2OB      -0.078400
     42 C36          5.5960     3.5130   -10.3000 c3         1 2OB      -0.073400
     43 C35          5.5830     4.9720    -9.8640 c3         1 2OB      -0.077400
     44 C34          6.8380     5.7420   -10.2530 c3         1 2OB      -0.074400
     45 C33          6.7680     7.2170    -9.8770 c3         1 2OB      -0.076400
     46 C32          8.0310     7.9940   -10.2230 c3         1 2OB      -0.074400
     47 C31          7.9280     9.4710    -9.8670 c3         1 2OB      -0.088100
     48 H3           3.8390     0.8380    -3.1480 h1         1 2OB       0.073700
     49 H21          6.4360     2.4120    -3.4320 hc         1 2OB       0.052200
     50 H22          5.4760     2.2340    -1.9730 hc         1 2OB       0.052200
     51 H41          4.1760     0.1860    -5.5080 hc         1 2OB       0.056700
     52 H42          5.6620     1.1230    -5.5670 hc         1 2OB       0.056700
     53 H9           2.4220     4.4810    -4.5830 hc         1 2OB       0.046700
     54 H111         4.6980     6.3650    -5.3150 hc         1 2OB       0.039200
     55 H112         3.9300     6.1670    -3.7670 hc         1 2OB       0.039200
     56 H121         1.8420     7.1450    -4.5870 hc         1 2OB       0.040200
     57 H122         3.1950     8.2060    -4.9140 hc         1 2OB       0.040200
     58 H181         4.3550     6.7280    -7.4470 hc         1 2OB       0.032700
     59 H182         3.3120     7.4900    -8.6230 hc         1 2OB       0.032700
     60 H183         4.0230     8.4460    -7.3280 hc         1 2OB       0.032700
     61 H17          0.4190     7.9980    -6.2990 hc         1 2OB       0.045700
     62 H20          2.1630     9.6850    -8.1250 hc         1 2OB       0.044700
     63 H221         0.4210    11.3210    -8.1260 hc         1 2OB       0.036200
     64 H222        -0.1610     9.8250    -8.8110 hc         1 2OB       0.036200
     65 H231        -1.3290     9.3040    -6.6480 hc         1 2OB       0.040700
     66 H232        -0.7570    10.8200    -5.9880 hc         1 2OB       0.040700
     67 H241        -2.5190    10.5180    -8.4640 hc         1 2OB       0.035200
     68 H242        -1.9270    12.0440    -7.8510 hc         1 2OB       0.035200
     69 H25         -4.2380    11.6890    -7.2430 hc         1 2OB       0.041700
     70 H271        -2.4990    11.5280    -4.7360 hc         1 2OB       0.031700
     71 H272        -4.1290    12.1810    -4.8430 hc         1 2OB       0.031700
     72 H273        -2.8020    12.9910    -5.6720 hc         1 2OB       0.031700
     73 H261        -3.3630     9.2440    -5.6320 hc         1 2OB       0.031700
     74 H262        -4.9870     9.9180    -5.7090 hc         1 2OB       0.031700
     75 H263        -4.2660     9.1980    -7.1460 hc         1 2OB       0.031700
     76 H211         1.3340    10.0860    -5.2140 hc         1 2OB       0.032367
     77 H212         1.9180    11.3940    -6.2420 hc         1 2OB       0.032367
     78 H213         2.9630    10.0300    -5.8740 hc         1 2OB       0.032367
     79 H161         0.9750     7.8700    -9.2640 hc         1 2OB       0.040700
     80 H162        -0.4720     7.4310    -8.3920 hc         1 2OB       0.040700
     81 H151         0.3120     5.1930    -8.4340 hc         1 2OB       0.041200
     82 H152         1.8560     5.7210    -9.0750 hc         1 2OB       0.041200
     83 H14          0.9490     5.7060    -6.1800 hc         1 2OB       0.044700
     84 H8           3.5470     4.7330    -7.3910 hc         1 2OB       0.054700
     85 H71          1.8520     3.1610    -7.9600 hc         1 2OB       0.048200
     86 H72          1.0400     3.3330    -6.4250 hc         1 2OB       0.048200
     87 H6           2.5490     1.1860    -6.6990 ha         1 2OB       0.125000
     88 H191         6.1840     4.8190    -5.1280 hc         1 2OB       0.035033
     89 H192         6.3830     3.1540    -5.6310 hc         1 2OB       0.035033
     90 H193         5.5590     4.2810    -6.6870 hc         1 2OB       0.035033
     91 H11          3.5630     3.3670    -2.9900 hc         1 2OB       0.044200
     92 H12          4.9850     4.3870    -3.0510 hc         1 2OB       0.044200
     93 H471         6.2450    -2.8400    -2.0290 hc         1 2OB       0.070700
     94 H472         7.2510    -1.9200    -3.1440 hc         1 2OB       0.070700
     95 H461         5.0190    -3.8830    -3.8740 hc         1 2OB       0.051200
     96 H462         6.7360    -4.1640    -4.0580 hc         1 2OB       0.051200
     97 H451         6.8730    -2.3400    -5.7570 hc         1 2OB       0.042200
     98 H452         5.1840    -1.9640    -5.5030 hc         1 2OB       0.042200
     99 H441         6.2330    -4.6080    -6.5940 hc         1 2OB       0.039200
    100 H442         4.5490    -4.2530    -6.2760 hc         1 2OB       0.039200
    101 H431         6.3250    -2.8050    -8.2980 hc         1 2OB       0.037200
    102 H432         5.0990    -4.0000    -8.6610 hc         1 2OB       0.037200
    103 H421         3.3780    -2.4320    -7.5860 hc         1 2OB       0.041200
    104 H422         4.6290    -1.2090    -7.5110 hc         1 2OB       0.041200
    105 H411         3.7080    -2.5650   -10.0730 hc         1 2OB       0.043200
    106 H412         4.9330    -1.3200    -9.9730 hc         1 2OB       0.043200
    107 H40          1.9420    -0.9980    -9.2850 ha         1 2OB       0.116000
    108 H39          2.1390     1.2240    -9.9780 ha         1 2OB       0.114000
    109 H381         4.3110     1.3830   -11.5070 hc         1 2OB       0.045200
    110 H382         5.1790     0.7790   -10.1120 hc         1 2OB       0.045200
    111 H371         3.4610     3.3020   -10.1850 hc         1 2OB       0.042200
    112 H372         4.3060     2.7220    -8.7660 hc         1 2OB       0.042200
    113 H361         6.4870     3.0180    -9.8970 hc         1 2OB       0.037200
    114 H362         5.6890     3.4620   -11.3900 hc         1 2OB       0.037200
    115 H351         5.4560     5.0230    -8.7770 hc         1 2OB       0.037700
    116 H352         4.7040     5.4710   -10.2860 hc         1 2OB       0.037700
    117 H341         7.7080     5.2820    -9.7720 hc         1 2OB       0.037200
    118 H342         7.0040     5.6500   -11.3320 hc         1 2OB       0.037200
    119 H331         5.9110     7.6770   -10.3810 hc         1 2OB       0.036700
    120 H332         6.5660     7.3090    -8.8040 hc         1 2OB       0.036700
    121 H321         8.2400     7.8880   -11.2920 hc         1 2OB       0.036700
    122 H322         8.8850     7.5480    -9.7030 hc         1 2OB       0.036700
    123 H311         7.7450     9.6070    -8.8000 hc         1 2OB       0.031367
    124 H312         8.8420    10.0110   -10.1190 hc         1 2OB       0.031367
    125 H313         7.1050     9.9460   -10.4040 hc         1 2OB       0.031367
@<TRIPOS>BOND
     1     1     2 2   
     2     2     3 1   
     3     2    31 1   
     4     3     4 1   
     5     4     5 1   
     6     4     6 1   
     7     4    48 1   
     8     5    30 1   
     9     5    49 1   
    10     5    50 1   
    11     6     7 1   
    12     6    51 1   
    13     6    52 1   
    14     7     8 1   
    15     7    28 2   
    16     8     9 1   
    17     8    29 1   
    18     8    30 1   
    19     9    10 1   
    20     9    26 1   
    21     9    53 1   
    22    10    11 1   
    23    10    54 1   
    24    10    55 1   
    25    11    12 1   
    26    11    56 1   
    27    11    57 1   
    28    12    13 1   
    29    12    14 1   
    30    12    25 1   
    31    13    58 1   
    32    13    59 1   
    33    13    60 1   
    34    14    15 1   
    35    14    23 1   
    36    14    61 1   
    37    15    16 1   
    38    15    22 1   
    39    15    62 1   
    40    16    17 1   
    41    16    63 1   
    42    16    64 1   
    43    17    18 1   
    44    17    65 1   
    45    17    66 1   
    46    18    19 1   
    47    18    67 1   
    48    18    68 1   
    49    19    20 1   
    50    19    21 1   
    51    19    69 1   
    52    20    70 1   
    53    20    71 1   
    54    20    72 1   
    55    21    73 1   
    56    21    74 1   
    57    21    75 1   
    58    22    76 1   
    59    22    77 1   
    60    22    78 1   
    61    23    24 1   
    62    23    79 1   
    63    23    80 1   
    64    24    25 1   
    65    24    81 1   
    66    24    82 1   
    67    25    26 1   
    68    25    83 1   
    69    26    27 1   
    70    26    84 1   
    71    27    28 1   
    72    27    85 1   
    73    27    86 1   
    74    28    87 1   
    75    29    88 1   
    76    29    89 1   
    77    29    90 1   
    78    30    91 1   
    79    30    92 1   
    80    31    32 1   
    81    31    93 1   
    82    31    94 1   
    83    32    33 1   
    84    32    95 1   
    85    32    96 1   
    86    33    34 1   
    87    33    97 1   
    88    33    98 1   
    89    34    35 1   
    90    34    99 1   
    91    34   100 1   
    92    35    36 1   
    93    35   101 1   
    94    35   102 1   
    95    36    37 1   
    96    36   103 1   
    97    36   104 1   
    98    37    38 1   
    99    37   105 1   
   100    37   106 1   
   101    38    39 2   
   102    38   107 1   
   103    39    40 1   
   104    39   108 1   
   105    40    41 1   
   106    40   109 1   
   107    40   110 1   
   108    41    42 1   
   109    41   111 1   
   110    41   112 1   
   111    42    43 1   
   112    42   113 1   
   113    42   114 1   
   114    43    44 1   
   115    43   115 1   
   116    43   116 1   
   117    44    45 1   
   118    44   117 1   
   119    44   118 1   
   120    45    46 1   
   121    45   119 1   
   122    45   120 1   
   123    46    47 1   
   124    46   121 1   
   125    46   122 1   
   126    47   123 1   
   127    47   124 1   
   128    47   125 1   
@<TRIPOS>SUBSTRUCTURE
     1 2OB         1 TEMP              0 ****  ****    0 ROOT
