@<TRIPOS>MOLECULE
2OD
   51    54     1     0     0
SMALL
No Charge or Current Charge


@<TRIPOS>ATOM
      1 N1           5.7890     0.4020    -0.1930 n3         1 2OD      -0.713600
      2 N3          -5.2490     3.0980    -0.0240 nv         1 2OD      -1.045200
      3 C4          -3.1980     0.0870     0.0220 ca         1 2OD      -0.148300
      4 C5          -2.3410     1.1780    -0.0130 ca         1 2OD       0.158400
      5 C6          -0.9540     1.0210    -0.0270 ca         1 2OD      -0.159000
      6 C7          -0.4240    -0.2940    -0.0060 ca         1 2OD       0.133100
      7 C8           1.9030     0.5450    -0.0530 c3         1 2OD       0.161600
      8 C10          4.4270     0.9700    -0.0890 c3         1 2OD       0.171800
      9 C13          8.1240     0.4870    -0.3440 c5         1 2OD      -0.079400
     10 C15         -4.3170     2.1080    -0.0010 c2         1 2OD       0.650200
     11 C17         -5.6200     0.1040     1.1280 cy         1 2OD      -0.060900
     12 C16         -4.6250     0.6140     0.0280 cy         1 2OD      -0.121000
     13 C19         -5.6430     0.0580    -1.0290 cy         1 2OD      -0.060900
     14 C18         -6.1260    -0.9400     0.0770 cy         1 2OD      -0.095400
     15 C3          -2.7050    -1.2270     0.0430 ca         1 2OD      -0.120000
     16 N2          -3.0600     2.3800    -0.0290 ne         1 2OD      -0.652100
     17 C2          -1.2990    -1.4180     0.0290 ca         1 2OD       0.081100
     18 O1          -0.7400    -2.6870     0.0490 os         1 2OD      -0.321100
     19 C1          -1.5400    -3.8830     0.0860 c3         1 2OD       0.146900
     20 O2           0.9430    -0.5230    -0.0190 os         1 2OD      -0.329100
     21 C9           3.3050    -0.0880    -0.0570 c3         1 2OD      -0.082400
     22 C14          6.8700     1.3980    -0.3280 c5         1 2OD       0.156800
     23 C12          7.7220    -0.7110     0.5720 c5         1 2OD      -0.079400
     24 C11          6.2450    -0.4170     0.9520 c5         1 2OD       0.156800
     25 H2          -4.8670     3.9740    -0.3630 hn         1 2OD       0.494500
     26 H3          -6.1310     2.8320    -0.4450 hn         1 2OD       0.494500
     27 H4          -0.3210     1.9020    -0.0540 ha         1 2OD       0.133000
     28 H5           1.7740     1.1540    -0.9570 h1         1 2OD       0.032700
     29 H6           1.7960     1.1920     0.8280 h1         1 2OD       0.032700
     30 H7           4.3510     1.5930     0.8130 h1         1 2OD       0.028200
     31 H8           4.2480     1.6270    -0.9510 h1         1 2OD       0.028200
     32 H9           8.3420     0.1420    -1.3620 hc         1 2OD       0.045950
     33 H10          9.0150     1.0140     0.0160 hc         1 2OD       0.045950
     34 H11         -5.1620    -0.3110     2.0320 hc         1 2OD       0.056450
     35 H12         -6.3800     0.8350     1.4300 hc         1 2OD       0.056450
     36 H13         -6.4120     0.7700    -1.3490 hc         1 2OD       0.056450
     37 H14         -5.2020    -0.3980    -1.9230 hc         1 2OD       0.056450
     38 H15         -5.6010    -1.9000     0.0920 hc         1 2OD       0.052700
     39 H16         -7.2020    -1.1430     0.0930 hc         1 2OD       0.052700
     40 H17         -3.3910    -2.0650     0.0700 ha         1 2OD       0.117000
     41 H18         -0.8950    -4.7700     0.0960 h1         1 2OD       0.035367
     42 H19         -2.1650    -3.9060     0.9870 h1         1 2OD       0.035367
     43 H20         -2.1890    -3.9450    -0.7970 h1         1 2OD       0.035367
     44 H21          3.4130    -0.7140     0.8350 hc         1 2OD       0.063200
     45 H22          3.4030    -0.7410    -0.9320 hc         1 2OD       0.063200
     46 H23          6.7820     1.9960    -1.2460 h1         1 2OD       0.035200
     47 H24          6.8890     2.0870     0.5290 h1         1 2OD       0.035200
     48 H25          7.8070    -1.6600     0.0310 hc         1 2OD       0.045950
     49 H26          8.3570    -0.7890     1.4620 hc         1 2OD       0.045950
     50 H27          6.1860     0.1500     1.8930 h1         1 2OD       0.035200
     51 H28          5.6650    -1.3420     1.0740 h1         1 2OD       0.035200
@<TRIPOS>BOND
     1     1     8 1   
     2     1    22 1   
     3     1    24 1   
     4     2    10 1   
     5     2    25 1   
     6     2    26 1   
     7     3     4 ar  
     8     3    12 1   
     9     3    15 ar  
    10     4     5 ar  
    11     4    16 1   
    12     5     6 ar  
    13     5    27 1   
    14     6    17 ar  
    15     6    20 1   
    16     7    20 1   
    17     7    21 1   
    18     7    28 1   
    19     7    29 1   
    20     8    21 1   
    21     8    30 1   
    22     8    31 1   
    23     9    22 1   
    24     9    23 1   
    25     9    32 1   
    26     9    33 1   
    27    10    12 1   
    28    10    16 2   
    29    11    12 1   
    30    11    14 1   
    31    11    34 1   
    32    11    35 1   
    33    12    13 1   
    34    13    14 1   
    35    13    36 1   
    36    13    37 1   
    37    14    38 1   
    38    14    39 1   
    39    15    17 ar  
    40    15    40 1   
    41    17    18 1   
    42    18    19 1   
    43    19    41 1   
    44    19    42 1   
    45    19    43 1   
    46    21    44 1   
    47    21    45 1   
    48    22    46 1   
    49    22    47 1   
    50    23    24 1   
    51    23    48 1   
    52    23    49 1   
    53    24    50 1   
    54    24    51 1   
@<TRIPOS>SUBSTRUCTURE
     1 2OD         1 TEMP              0 ****  ****    0 ROOT
