@<TRIPOS>MOLECULE
2OD
   51    54     1     0     0
SMALL
bcc


@<TRIPOS>ATOM
      1 N1           5.6780     0.3310    -0.2580 n3         1 2OD      -0.713600
      2 N3          -5.1370     3.0360    -0.0090 nv         1 2OD      -0.934800
      3 C4          -3.1120     0.0800    -0.0150 ca         1 2OD      -0.148300
      4 C5          -2.2420     1.1600    -0.0740 ca         1 2OD       0.158400
      5 C6          -0.8670     0.9600    -0.1150 ca         1 2OD      -0.177000
      6 C7          -0.3780    -0.3420    -0.0940 ca         1 2OD       0.133100
      7 C8           1.8850     0.3860    -0.1550 c3         1 2OD       0.138400
      8 C10          4.3360     0.8550    -0.1510 c3         1 2OD       0.171800
      9 C13          7.9980     0.6250    -0.1950 c5         1 2OD      -0.079400
     10 C15         -4.1700     2.1150    -0.0340 c2         1 2OD       0.650200
     11 C17         -5.4310     0.1090     1.1400 cy         1 2OD      -0.060900
     12 C16         -4.4980     0.6380     0.0170 cy         1 2OD      -0.121000
     13 C19         -5.5050     0.0540    -1.0110 cy         1 2OD      -0.060900
     14 C18         -6.1310    -0.7930     0.1100 cy         1 2OD      -0.095400
     15 C3          -2.6370    -1.2200     0.0060 ca         1 2OD      -0.138000
     16 N2          -2.9040     2.3920    -0.0860 ne         1 2OD      -0.652100
     17 C2          -1.2630    -1.4390    -0.0330 ca         1 2OD       0.081100
     18 O1          -0.6770    -2.6600    -0.0170 os         1 2OD      -0.297900
     19 C1          -1.5120    -3.7900     0.0940 c3         1 2OD       0.123700
     20 O2           0.9330    -0.6610    -0.1260 os         1 2OD      -0.305900
     21 C9           3.2690    -0.2310    -0.1610 c3         1 2OD      -0.082400
     22 C14          6.6820     1.3750    -0.3690 c5         1 2OD       0.156800
     23 C12          7.6320    -0.5510     0.7320 c5         1 2OD      -0.079400
     24 C11          6.1070    -0.4720     0.8760 c5         1 2OD       0.156800
     25 H2          -4.9150     4.0130    -0.0960 hn         1 2OD       0.439300
     26 H3          -6.1070     2.7800    -0.0480 hn         1 2OD       0.439300
     27 H4          -0.2040     1.8130    -0.1590 ha         1 2OD       0.151000
     28 H5           1.7460     1.0090    -1.0480 h1         1 2OD       0.032700
     29 H6           1.7640     1.0390     0.7180 h1         1 2OD       0.032700
     30 H7           4.2220     1.4710     0.7600 h1         1 2OD       0.028200
     31 H8           4.1700     1.5280    -0.9980 h1         1 2OD       0.028200
     32 H9           8.3550     0.2590    -1.1580 hc         1 2OD       0.045950
     33 H10          8.7780     1.2640     0.2180 hc         1 2OD       0.045950
     34 H11         -4.9330    -0.3680     1.9830 hc         1 2OD       0.056450
     35 H12         -6.0900     0.8900     1.5260 hc         1 2OD       0.056450
     36 H13         -6.1900     0.8140    -1.3890 hc         1 2OD       0.056450
     37 H14         -5.0650    -0.4660    -1.8620 hc         1 2OD       0.056450
     38 H15         -5.7500    -1.8140     0.1230 hc         1 2OD       0.052700
     39 H16         -7.2190    -0.8350     0.1480 hc         1 2OD       0.052700
     40 H17         -3.3290    -2.0510     0.0530 ha         1 2OD       0.135000
     41 H18         -0.8590    -4.6600     0.1100 h1         1 2OD       0.035367
     42 H19         -2.1010    -3.7790     1.0160 h1         1 2OD       0.035367
     43 H20         -2.1960    -3.8840    -0.7550 h1         1 2OD       0.035367
     44 H21          3.3760    -0.8780     0.7130 hc         1 2OD       0.063200
     45 H22          3.3950    -0.8560    -1.0480 hc         1 2OD       0.063200
     46 H23          6.6030     1.8940    -1.3270 h1         1 2OD       0.035200
     47 H24          6.5660     2.1330     0.4250 h1         1 2OD       0.035200
     48 H25          7.9370    -1.5020     0.2950 hc         1 2OD       0.045950
     49 H26          8.1180    -0.4790     1.7050 hc         1 2OD       0.045950
     50 H27          5.8380     0.0130     1.8300 h1         1 2OD       0.035200
     51 H28          5.6340    -1.4560     0.8720 h1         1 2OD       0.035200
@<TRIPOS>BOND
     1     1     8 1   
     2     1    22 1   
     3     1    24 1   
     4     2    10 1   
     5     2    25 1   
     6     2    26 1   
     7     3     4 ar  
     8     3    12 1   
     9     3    15 ar  
    10     4     5 ar  
    11     4    16 1   
    12     5     6 ar  
    13     5    27 1   
    14     6    17 ar  
    15     6    20 1   
    16     7    20 1   
    17     7    21 1   
    18     7    28 1   
    19     7    29 1   
    20     8    21 1   
    21     8    30 1   
    22     8    31 1   
    23     9    22 1   
    24     9    23 1   
    25     9    32 1   
    26     9    33 1   
    27    10    12 1   
    28    10    16 2   
    29    11    12 1   
    30    11    14 1   
    31    11    34 1   
    32    11    35 1   
    33    12    13 1   
    34    13    14 1   
    35    13    36 1   
    36    13    37 1   
    37    14    38 1   
    38    14    39 1   
    39    15    17 ar  
    40    15    40 1   
    41    17    18 1   
    42    18    19 1   
    43    19    41 1   
    44    19    42 1   
    45    19    43 1   
    46    21    44 1   
    47    21    45 1   
    48    22    46 1   
    49    22    47 1   
    50    23    24 1   
    51    23    48 1   
    52    23    49 1   
    53    24    50 1   
    54    24    51 1   
@<TRIPOS>SUBSTRUCTURE
     1 2OD         1 TEMP              0 ****  ****    0 ROOT
