@<TRIPOS>MOLECULE
2OE
   36    38     1     0     0
SMALL
bcc


@<TRIPOS>ATOM
      1 CAL          3.4830     0.3770    -1.2010 ca         1 2OE      -0.232000
      2 CAQ          4.8330     0.1300    -0.9600 ca         1 2OE       0.152100
      3 OAB          5.6670    -0.3000    -1.9240 oh         1 2OE      -0.491100
      4 CAG          5.3590     0.3270     0.3160 ca         1 2OE      -0.164000
      5 CAF          4.5350     0.7750     1.3350 ca         1 2OE      -0.083000
      6 CAH          3.1880     1.0330     1.1130 ca         1 2OE      -0.176000
      7 CAR          2.6870     0.8280    -0.1620 ca         1 2OE       0.135100
      8 OAO          1.3670     1.1160    -0.4310 os         1 2OE      -0.252200
      9 CAS          0.4120     0.2290    -0.0820 ca         1 2OE       0.177100
     10 CAM         -0.9050     0.6410    -0.2390 ca         1 2OE      -0.277300
     11 CAK          0.6730    -1.0500     0.3920 ca         1 2OE      -0.325300
     12 CAP         -0.4110    -1.8700     0.6900 ca         1 2OE       0.457600
     13 CAA         -0.1920    -3.2570     1.2110 c3         1 2OE      -0.146400
     14 NAN         -1.6710    -1.4750     0.5490 nb         1 2OE      -0.704000
     15 CAU         -1.9190    -0.2440     0.1010 cp         1 2OE       0.507800
     16 CAT         -3.3440     0.1370    -0.0310 cp         1 2OE      -0.150500
     17 CAI         -3.7470     1.4720     0.0160 ca         1 2OE      -0.098500
     18 CAD         -5.0860     1.8130    -0.1080 ca         1 2OE      -0.138000
     19 CAC         -6.0450     0.8250    -0.2820 ca         1 2OE      -0.116000
     20 CAE         -5.6550    -0.5080    -0.3260 ca         1 2OE      -0.138000
     21 CAJ         -4.3180    -0.8500    -0.1950 ca         1 2OE      -0.098500
     22 H1           3.0560     0.2280    -2.1860 ha         1 2OE       0.149000
     23 H2           5.2040    -0.3780    -2.7650 ho         1 2OE       0.430000
     24 H3           6.4080     0.1340     0.5000 ha         1 2OE       0.151000
     25 H4           4.9500     0.9310     2.3220 ha         1 2OE       0.139000
     26 H5           2.5500     1.3910     1.9100 ha         1 2OE       0.152000
     27 H6          -1.1180     1.6250    -0.6350 ha         1 2OE       0.157000
     28 H7           1.6810    -1.4160     0.5290 ha         1 2OE       0.153000
     29 H8          -0.4710    -3.3170     2.2640 hc         1 2OE       0.051700
     30 H9          -0.8110    -3.9750     0.6720 hc         1 2OE       0.051700
     31 H10          0.8490    -3.5630     1.1240 hc         1 2OE       0.051700
     32 H11         -3.0200     2.2590     0.1700 ha         1 2OE       0.140500
     33 H12         -5.3790     2.8540    -0.0600 ha         1 2OE       0.131500
     34 H13         -7.0900     1.0890    -0.3800 ha         1 2OE       0.130000
     35 H14         -6.3950    -1.2860    -0.4630 ha         1 2OE       0.131500
     36 H15         -4.0210    -1.8900    -0.2270 ha         1 2OE       0.140500
@<TRIPOS>BOND
     1     1     2 ar  
     2     1     7 ar  
     3     1    22 1   
     4     2     3 1   
     5     2     4 ar  
     6     3    23 1   
     7     4     5 ar  
     8     4    24 1   
     9     5     6 ar  
    10     5    25 1   
    11     6     7 ar  
    12     6    26 1   
    13     7     8 1   
    14     8     9 1   
    15     9    10 ar  
    16     9    11 ar  
    17    10    15 ar  
    18    10    27 1   
    19    11    12 ar  
    20    11    28 1   
    21    12    13 1   
    22    12    14 ar  
    23    13    29 1   
    24    13    30 1   
    25    13    31 1   
    26    14    15 ar  
    27    15    16 1   
    28    16    17 ar  
    29    16    21 ar  
    30    17    18 ar  
    31    17    32 1   
    32    18    19 ar  
    33    18    33 1   
    34    19    20 ar  
    35    19    34 1   
    36    20    21 ar  
    37    20    35 1   
    38    21    36 1   
@<TRIPOS>SUBSTRUCTURE
     1 2OE         1 TEMP              0 ****  ****    0 ROOT
