@<TRIPOS>MOLECULE
2OE
   36    38     1     0     0
SMALL
No Charge or Current Charge


@<TRIPOS>ATOM
      1 CAL          3.8320     0.5400    -1.3770 ca         1 2OE      -0.214000
      2 CAQ          5.1350     0.5780    -0.8580 ca         1 2OE       0.152100
      3 OAB          6.2080     0.5420    -1.6960 oh         1 2OE      -0.530100
      4 CAG          5.3390     0.6560     0.5290 ca         1 2OE      -0.146000
      5 CAF          4.2390     0.7010     1.4030 ca         1 2OE      -0.065000
      6 CAH          2.9330     0.6620     0.8840 ca         1 2OE      -0.158000
      7 CAR          2.7300     0.5710    -0.5070 ca         1 2OE       0.135100
      8 OAO          1.4620     0.5450    -1.0400 os         1 2OE      -0.252200
      9 CAS          0.4260    -0.1570    -0.4700 ca         1 2OE       0.177100
     10 CAM         -0.8720     0.3540    -0.5370 ca         1 2OE      -0.194000
     11 CAK          0.6280    -1.3990     0.1450 ca         1 2OE      -0.242000
     12 CAP         -0.4770    -2.0720     0.6810 ca         1 2OE       0.392300
     13 CAA         -0.3200    -3.4160     1.3620 c3         1 2OE      -0.146400
     14 NAN         -1.7270    -1.5700     0.6280 nb         1 2OE      -0.704000
     15 CAU         -1.9420    -0.3730     0.0350 cp         1 2OE       0.442500
     16 CAT         -3.3650     0.1230     0.0030 cp         1 2OE      -0.150500
     17 CAI         -3.6670     1.5060    -0.1380 ca         1 2OE      -0.080500
     18 CAD         -4.9950     1.9650    -0.1680 ca         1 2OE      -0.120000
     19 CAC         -6.0580     1.0560    -0.0570 ca         1 2OE      -0.098000
     20 CAE         -5.7910    -0.3130     0.0890 ca         1 2OE      -0.120000
     21 CAJ         -4.4640    -0.7740     0.1200 ca         1 2OE      -0.080500
     22 H1           3.6630     0.4820    -2.4490 ha         1 2OE       0.131000
     23 H2           5.8780     0.4900    -2.6190 ho         1 2OE       0.469000
     24 H3           6.3500     0.6860     0.9270 ha         1 2OE       0.133000
     25 H4           4.3980     0.7680     2.4780 ha         1 2OE       0.121000
     26 H5           2.0830     0.7090     1.5610 ha         1 2OE       0.134000
     27 H6          -1.0470     1.2990    -1.0380 ha         1 2OE       0.139000
     28 H7           1.6180    -1.8420     0.2010 ha         1 2OE       0.135000
     29 H8          -0.2310    -3.2920     2.4480 hc         1 2OE       0.051700
     30 H9          -1.1810    -4.0670     1.1660 hc         1 2OE       0.051700
     31 H10          0.5760    -3.9390     1.0090 hc         1 2OE       0.051700
     32 H11         -2.8690     2.2400    -0.2090 ha         1 2OE       0.122500
     33 H12         -5.1990     3.0280    -0.2750 ha         1 2OE       0.113500
     34 H13         -7.0860     1.4130    -0.0800 ha         1 2OE       0.112000
     35 H14         -6.6140    -1.0200     0.1770 ha         1 2OE       0.113500
     36 H15         -4.2890    -1.8420     0.2290 ha         1 2OE       0.122500
@<TRIPOS>BOND
     1     1     2 ar  
     2     1     7 ar  
     3     1    22 1   
     4     2     3 1   
     5     2     4 ar  
     6     3    23 1   
     7     4     5 ar  
     8     4    24 1   
     9     5     6 ar  
    10     5    25 1   
    11     6     7 ar  
    12     6    26 1   
    13     7     8 1   
    14     8     9 1   
    15     9    10 ar  
    16     9    11 ar  
    17    10    15 ar  
    18    10    27 1   
    19    11    12 ar  
    20    11    28 1   
    21    12    13 1   
    22    12    14 ar  
    23    13    29 1   
    24    13    30 1   
    25    13    31 1   
    26    14    15 ar  
    27    15    16 1   
    28    16    17 ar  
    29    16    21 ar  
    30    17    18 ar  
    31    17    32 1   
    32    18    19 ar  
    33    18    33 1   
    34    19    20 ar  
    35    19    34 1   
    36    20    21 ar  
    37    20    35 1   
    38    21    36 1   
@<TRIPOS>SUBSTRUCTURE
     1 2OE         1 TEMP              0 ****  ****    0 ROOT
