@<TRIPOS>MOLECULE
2OG
   14    13     1     0     0
SMALL
No Charge or Current Charge


@<TRIPOS>ATOM
      1 C1           0.2670    -0.3310    -2.2670 c          1 2OG       0.635000
      2 C2          -0.5000     0.5600    -1.1480 c          1 2OG       0.427100
      3 C3           0.1480     0.6390     0.2510 c3         1 2OG      -0.162400
      4 C4          -0.4760    -0.3910     1.2350 c3         1 2OG      -0.192400
      5 C5           0.1960    -0.3010     2.6200 c          1 2OG       0.710000
      6 O1           1.4850    -0.2110    -2.3840 o          1 2OG      -0.725000
      7 O2          -0.3980    -1.0790    -2.9800 o          1 2OG      -0.725000
      8 O5          -1.5570     1.1550    -1.3840 o          1 2OG      -0.595100
      9 O3           1.1910    -0.9790     2.8250 o          1 2OG      -0.765000
     10 O4          -0.2610     0.4860     3.4350 o          1 2OG      -0.765000
     11 H31          0.0090     1.6480     0.6580 hc         1 2OG       0.063700
     12 H32          1.2160     0.4070     0.1710 hc         1 2OG       0.063700
     13 H41         -0.2980    -1.3760     0.7870 hc         1 2OG       0.016200
     14 H42         -1.5390    -0.1270     1.3090 hc         1 2OG       0.016200
@<TRIPOS>BOND
     1     1     2 1   
     2     1     6 1   
     3     1     7 1   
     4     2     3 1   
     5     2     8 2   
     6     3     4 1   
     7     3    11 1   
     8     3    12 1   
     9     4     5 1   
    10     4    13 1   
    11     4    14 1   
    12     5     9 1   
    13     5    10 1   
@<TRIPOS>SUBSTRUCTURE
     1 2OG         1 TEMP              0 ****  ****    0 ROOT
