@<TRIPOS>MOLECULE
2OG
   14    13     1     0     0
SMALL
abcg2


@<TRIPOS>ATOM
      1 C1           0.3480     0.0210    -2.4630 c          1 2OG       0.635000
      2 C2          -0.4890     0.0320    -1.1490 c          1 2OG       0.427100
      3 C3           0.2640     0.0200     0.1510 c3         1 2OG      -0.162400
      4 C4          -0.6040    -0.0020     1.3920 c3         1 2OG      -0.192400
      5 C5           0.1680    -0.0240     2.7240 c          1 2OG       0.710000
      6 O1           1.5690     0.2130    -2.3260 o          1 2OG      -0.725000
      7 O2          -0.2880    -0.1980    -3.5040 o          1 2OG      -0.725000
      8 O5          -1.6990     0.0480    -1.2020 o          1 2OG      -0.595100
      9 O3           1.4130    -0.0540     2.6810 o          1 2OG      -0.765000
     10 O4          -0.5340     0.0060     3.7570 o          1 2OG      -0.765000
     11 H31          0.9340     0.8840     0.1560 hc         1 2OG       0.063700
     12 H32          0.9430    -0.8380     0.1350 hc         1 2OG       0.063700
     13 H41         -1.2690    -0.8710     1.3730 hc         1 2OG       0.016200
     14 H42         -1.2730     0.8640     1.4020 hc         1 2OG       0.016200
@<TRIPOS>BOND
     1     1     2 1   
     2     1     6 1   
     3     1     7 1   
     4     2     3 1   
     5     2     8 2   
     6     3     4 1   
     7     3    11 1   
     8     3    12 1   
     9     4     5 1   
    10     4    13 1   
    11     4    14 1   
    12     5     9 1   
    13     5    10 1   
@<TRIPOS>SUBSTRUCTURE
     1 2OG         1 TEMP              0 ****  ****    0 ROOT
