@<TRIPOS>MOLECULE
2OH
   33    34     1     0     0
SMALL
abcg2


@<TRIPOS>ATOM
      1 O2           1.8100    -1.0480     4.0020 oh         1 2OH      -0.535100
      2 C13          1.8350    -1.0550     2.6510 ca         1 2OH       0.135100
      3 C12          1.7240    -2.2260     1.9040 ca         1 2OH      -0.176000
      4 C11          1.7610    -2.1690     0.5210 ca         1 2OH      -0.066500
      5 C14          1.9820     0.1570     1.9890 ca         1 2OH      -0.176000
      6 C15          2.0150     0.1930     0.6000 ca         1 2OH      -0.066500
      7 C4           1.9050    -0.9630    -0.1660 ca         1 2OH      -0.109300
      8 C2           1.8920    -0.9610    -1.6920 c3         1 2OH       0.062600
      9 C3           2.2710     0.4070    -2.2740 c3         1 2OH      -0.082100
     10 C5           0.4610    -1.2810    -2.1470 c3         1 2OH      -0.082100
     11 C1           2.9040    -1.9830    -2.2040 ca         1 2OH      -0.109300
     12 C10          4.2170    -1.9420    -1.7350 ca         1 2OH      -0.066500
     13 C9           5.1860    -2.8180    -2.1940 ca         1 2OH      -0.176000
     14 C6           2.6010    -2.9490    -3.1580 ca         1 2OH      -0.066500
     15 C7           3.5580    -3.8390    -3.6280 ca         1 2OH      -0.176000
     16 C8           4.8610    -3.7780    -3.1510 ca         1 2OH       0.135100
     17 O1           5.7610    -4.6620    -3.6340 oh         1 2OH      -0.535100
     18 HO2          1.6960    -1.9440     4.3370 ho         1 2OH       0.463000
     19 H12          1.6100    -3.1830     2.4010 ha         1 2OH       0.119500
     20 H11          1.6830    -3.0950    -0.0370 ha         1 2OH       0.115500
     21 H14          2.0760     1.0740     2.5570 ha         1 2OH       0.119500
     22 H15          2.1360     1.1570     0.1240 ha         1 2OH       0.115500
     23 H31          1.5340     1.1710    -2.0170 hc         1 2OH       0.037867
     24 H32          3.2470     0.7490    -1.9280 hc         1 2OH       0.037867
     25 H33          2.3090     0.3470    -3.3620 hc         1 2OH       0.037867
     26 H51         -0.2310    -0.5550    -1.7170 hc         1 2OH       0.037867
     27 H52          0.3600    -1.2250    -3.2320 hc         1 2OH       0.037867
     28 H53          0.1380    -2.2740    -1.8290 hc         1 2OH       0.037867
     29 H10          4.4950    -1.2130    -0.9830 ha         1 2OH       0.115500
     30 H9           6.1960    -2.7570    -1.8020 ha         1 2OH       0.119500
     31 H6           1.5980    -3.0330    -3.5550 ha         1 2OH       0.115500
     32 H7           3.2900    -4.5850    -4.3670 ha         1 2OH       0.119500
     33 HO1          6.6240    -4.5120    -3.2340 ho         1 2OH       0.463000
@<TRIPOS>BOND
     1     1     2 1   
     2     1    18 1   
     3     2     3 ar  
     4     2     5 ar  
     5     3     4 ar  
     6     3    19 1   
     7     4     7 ar  
     8     4    20 1   
     9     5     6 ar  
    10     5    21 1   
    11     6     7 ar  
    12     6    22 1   
    13     7     8 1   
    14     8     9 1   
    15     8    10 1   
    16     8    11 1   
    17     9    23 1   
    18     9    24 1   
    19     9    25 1   
    20    10    26 1   
    21    10    27 1   
    22    10    28 1   
    23    11    12 ar  
    24    11    14 ar  
    25    12    13 ar  
    26    12    29 1   
    27    13    16 ar  
    28    13    30 1   
    29    14    15 ar  
    30    14    31 1   
    31    15    16 ar  
    32    15    32 1   
    33    16    17 1   
    34    17    33 1   
@<TRIPOS>SUBSTRUCTURE
     1 2OH         1 TEMP              0 ****  ****    0 ROOT
