@<TRIPOS>MOLECULE
2OH
   33    34     1     0     0
SMALL
No Charge or Current Charge


@<TRIPOS>ATOM
      1 O2           1.8890    -1.1360     4.0220 oh         1 2OH      -0.535100
      2 C13          1.8830    -1.0800     2.6610 ca         1 2OH       0.135100
      3 C12          1.7240    -2.2490     1.9040 ca         1 2OH      -0.176000
      4 C11          1.7190    -2.1820     0.5000 ca         1 2OH      -0.066500
      5 C14          2.0360     0.1530     2.0150 ca         1 2OH      -0.176000
      6 C15          2.0320     0.2250     0.6100 ca         1 2OH      -0.066500
      7 C4           1.8760    -0.9470    -0.1710 ca         1 2OH      -0.109300
      8 C2           1.8620    -0.9330    -1.7210 c3         1 2OH       0.062600
      9 C3           2.2510     0.4460    -2.3250 c3         1 2OH      -0.082100
     10 C5           0.4070    -1.2480    -2.1700 c3         1 2OH      -0.082100
     11 C1           2.8970    -1.9660    -2.2310 ca         1 2OH      -0.109300
     12 C10          4.2230    -1.8980    -1.7450 ca         1 2OH      -0.066500
     13 C9           5.2010    -2.8110    -2.1770 ca         1 2OH      -0.176000
     14 C6           2.5800    -2.9780    -3.1720 ca         1 2OH      -0.066500
     15 C7           3.5610    -3.8880    -3.6010 ca         1 2OH      -0.176000
     16 C8           4.8680    -3.8070    -3.1050 ca         1 2OH       0.135100
     17 O1           5.8090    -4.6960    -3.5290 oh         1 2OH      -0.535100
     18 HO2          1.7700    -2.0710     4.2940 ho         1 2OH       0.463000
     19 H12          1.6040    -3.2120     2.3940 ha         1 2OH       0.119500
     20 H11          1.5960    -3.1000    -0.0710 ha         1 2OH       0.115500
     21 H14          2.1580     1.0590     2.6020 ha         1 2OH       0.119500
     22 H15          2.1500     1.2020     0.1510 ha         1 2OH       0.115500
     23 H31          1.5150     1.2170    -2.0660 hc         1 2OH       0.037867
     24 H32          3.2350     0.7740    -1.9720 hc         1 2OH       0.037867
     25 H33          2.2940     0.3850    -3.4190 hc         1 2OH       0.037867
     26 H51         -0.2940    -0.5310    -1.7280 hc         1 2OH       0.037867
     27 H52          0.3030    -1.1820    -3.2600 hc         1 2OH       0.037867
     28 H53          0.0990    -2.2520    -1.8540 hc         1 2OH       0.037867
     29 H10          4.5000    -1.1330    -1.0220 ha         1 2OH       0.115500
     30 H9           6.2120    -2.7370    -1.7850 ha         1 2OH       0.119500
     31 H6           1.5800    -3.0750    -3.5850 ha         1 2OH       0.115500
     32 H7           3.3040    -4.6600    -4.3220 ha         1 2OH       0.119500
     33 HO1          6.6570    -4.4880    -3.0810 ho         1 2OH       0.463000
@<TRIPOS>BOND
     1     1     2 1   
     2     1    18 1   
     3     2     3 ar  
     4     2     5 ar  
     5     3     4 ar  
     6     3    19 1   
     7     4     7 ar  
     8     4    20 1   
     9     5     6 ar  
    10     5    21 1   
    11     6     7 ar  
    12     6    22 1   
    13     7     8 1   
    14     8     9 1   
    15     8    10 1   
    16     8    11 1   
    17     9    23 1   
    18     9    24 1   
    19     9    25 1   
    20    10    26 1   
    21    10    27 1   
    22    10    28 1   
    23    11    12 ar  
    24    11    14 ar  
    25    12    13 ar  
    26    12    29 1   
    27    13    16 ar  
    28    13    30 1   
    29    14    15 ar  
    30    14    31 1   
    31    15    16 ar  
    32    15    32 1   
    33    16    17 1   
    34    17    33 1   
@<TRIPOS>SUBSTRUCTURE
     1 2OH         1 TEMP              0 ****  ****    0 ROOT
