@<TRIPOS>MOLECULE
2OI
   41    44     1     0     0
SMALL
No Charge or Current Charge


@<TRIPOS>ATOM
      1 C1          34.7700   -30.8880   -36.6720 c          1 2OI       0.587600
      2 C2          36.1390   -30.5850   -37.2610 ca         1 2OI      -0.145600
      3 C4          35.7170   -31.0490   -39.7870 cc         1 2OI      -0.152400
      4 C6          34.0260   -32.4240   -38.5660 c3         1 2OI       0.120000
      5 C8          37.1550   -30.1280   -36.3810 ca         1 2OI      -0.035000
      6 C9          38.4470   -29.7990   -36.8470 ca         1 2OI      -0.208000
      7 C10         38.7540   -29.9050   -38.2200 ca         1 2OI       0.155100
      8 C11         37.7400   -30.3440   -39.0820 ca         1 2OI      -0.086200
      9 C15         36.9290   -32.4910   -42.8390 ca         1 2OI      -0.088300
     10 C16         36.5190   -33.7340   -42.3180 ca         1 2OI      -0.095500
     11 C17         37.1190   -34.9240   -42.7660 ca         1 2OI      -0.101500
     12 C20         37.9480   -32.4510   -43.8130 ca         1 2OI      -0.095500
     13 O21         34.4440   -30.4330   -35.5860 o          1 2OI      -0.582000
     14 C23         41.0770   -29.1320   -37.9150 c3         1 2OI       0.150900
     15 C3          36.4870   -30.6730   -38.6300 ca         1 2OI      -0.029800
     16 C5          34.2980   -31.5260   -39.7740 c3         1 2OI      -0.017200
     17 N7          33.8430   -31.6640   -37.3340 ns         1 2OI      -0.507900
     18 N12         37.8320   -30.4890   -40.4540 na         1 2OI      -0.194700
     19 C13         36.5640   -30.9230   -40.8880 cd         1 2OI      -0.047300
     20 C18         38.1320   -34.8770   -43.7370 ca         1 2OI       0.122000
     21 C19         38.5470   -33.6420   -44.2610 ca         1 2OI      -0.101500
     22 O22         39.9930   -29.5900   -38.7430 os         1 2OI      -0.351100
     23 Cl          38.8830   -36.3660   -44.2970 cl         1 2OI      -0.202000
     24 H1          33.1040   -32.9930   -38.7470 h1         1 2OI       0.043700
     25 H2          34.8450   -33.1440   -38.4350 h1         1 2OI       0.043700
     26 H3          36.9470   -30.0310   -35.3170 ha         1 2OI       0.134000
     27 H4          39.1880   -29.4600   -36.1290 ha         1 2OI       0.120000
     28 H5          36.6230   -30.3530   -42.9440 hc         1 2OI       0.065700
     29 H6          35.1990   -31.2520   -42.5180 hc         1 2OI       0.065700
     30 H7          35.7380   -33.7790   -41.5630 ha         1 2OI       0.119000
     31 H8          36.8000   -35.8810   -42.3610 ha         1 2OI       0.130500
     32 H9          38.2790   -31.4990   -44.2240 ha         1 2OI       0.119000
     33 H10         41.9680   -28.9400   -38.5260 h1         1 2OI       0.044033
     34 H11         40.8090   -28.1990   -37.4030 h1         1 2OI       0.044033
     35 H12         41.3370   -29.8860   -37.1610 h1         1 2OI       0.044033
     36 H13         33.6030   -30.6780   -39.7770 hc         1 2OI       0.051200
     37 H14         34.0890   -32.1080   -40.6780 hc         1 2OI       0.051200
     38 H15         32.9600   -31.7700   -36.8500 hn         1 2OI       0.310500
     39 H16         38.6510   -30.3230   -41.0280 hn         1 2OI       0.363000
     40 H17         39.3330   -33.6080   -45.0110 ha         1 2OI       0.130500
     41 C14         36.2800   -31.2040   -42.3440 c3         1 2OI       0.022100
@<TRIPOS>BOND
     1     1     2 1   
     2     1    13 2   
     3     1    17 1   
     4     2     5 ar  
     5     2    15 ar  
     6     3    15 1   
     7     3    16 1   
     8     3    19 2   
     9     4    16 1   
    10     4    17 1   
    11     4    24 1   
    12     4    25 1   
    13     5     6 ar  
    14     5    26 1   
    15     6     7 ar  
    16     6    27 1   
    17     7     8 ar  
    18     7    22 1   
    19     8    15 ar  
    20     8    18 1   
    21     9    10 ar  
    22     9    12 ar  
    23     9    41 1   
    24    10    11 ar  
    25    10    30 1   
    26    11    20 ar  
    27    11    31 1   
    28    12    21 ar  
    29    12    32 1   
    30    14    22 1   
    31    14    33 1   
    32    14    34 1   
    33    14    35 1   
    34    16    36 1   
    35    16    37 1   
    36    17    38 1   
    37    18    19 1   
    38    18    39 1   
    39    19    41 1   
    40    20    21 ar  
    41    20    23 1   
    42    21    40 1   
    43    28    41 1   
    44    29    41 1   
@<TRIPOS>SUBSTRUCTURE
     1 2OI         1 TEMP              0 ****  ****    0 ROOT
