@<TRIPOS>MOLECULE
2OI
   41    44     1     0     0
SMALL
bcc


@<TRIPOS>ATOM
      1 C1          34.7770   -30.7820   -36.6670 c          1 2OI       0.730100
      2 C2          36.1210   -30.5850   -37.2720 ca         1 2OI      -0.145600
      3 C4          35.6650   -31.0420   -39.8110 cc         1 2OI      -0.152400
      4 C6          33.9810   -32.3130   -38.5200 c3         1 2OI       0.120000
      5 C8          37.1480   -30.1900   -36.4300 ca         1 2OI      -0.053000
      6 C9          38.4390   -29.9050   -36.8860 ca         1 2OI      -0.226000
      7 C10         38.7440   -29.9860   -38.2360 ca         1 2OI       0.155100
      8 C11         37.7170   -30.3780   -39.0990 ca         1 2OI      -0.086200
      9 C15         36.9850   -32.4680   -42.8050 ca         1 2OI      -0.088300
     10 C16         36.7720   -33.6960   -42.1820 ca         1 2OI      -0.113500
     11 C17         37.4050   -34.8460   -42.6270 ca         1 2OI      -0.119500
     12 C20         37.8620   -32.4150   -43.8820 ca         1 2OI      -0.113500
     13 O21         34.5120   -30.3030   -35.5670 o          1 2OI      -0.657500
     14 C23         40.9920   -29.3070   -37.9530 c3         1 2OI       0.127700
     15 C3          36.4190   -30.6870   -38.6500 ca         1 2OI      -0.029800
     16 C5          34.2580   -31.5340   -39.8000 c3         1 2OI      -0.017200
     17 N7          33.8390   -31.4760   -37.3460 ns         1 2OI      -0.574900
     18 N12         37.7430   -30.5340   -40.4530 na         1 2OI      -0.144400
     19 C13         36.5130   -30.9370   -40.8850 cd         1 2OI      -0.047300
     20 C18         38.2690   -34.7640   -43.7090 ca         1 2OI       0.030400
     21 C19         38.5070   -33.5560   -44.3420 ca         1 2OI      -0.119500
     22 O22         39.9340   -29.7240   -38.7960 os         1 2OI      -0.327900
     23 CL          39.0600   -36.1980   -44.2820 cl         1 2OI      -0.110400
     24 H1          33.0410   -32.8540   -38.6190 h1         1 2OI       0.043700
     25 H2          34.7620   -33.0630   -38.3680 h1         1 2OI       0.043700
     26 H3          36.9520   -30.0890   -35.3710 ha         1 2OI       0.152000
     27 H4          39.1900   -29.6140   -36.1630 ha         1 2OI       0.138000
     28 H5          36.5520   -30.3760   -42.9390 hc         1 2OI       0.065700
     29 H6          35.1880   -31.3610   -42.4730 hc         1 2OI       0.065700
     30 H7          36.0980   -33.7630   -41.3350 ha         1 2OI       0.137000
     31 H8          37.2260   -35.7930   -42.1360 ha         1 2OI       0.148500
     32 H9          38.0460   -31.4710   -44.3790 ha         1 2OI       0.137000
     33 H10         41.8520   -29.1400   -38.5960 h1         1 2OI       0.044033
     34 H11         40.7510   -28.3770   -37.4330 h1         1 2OI       0.044033
     35 H12         41.2440   -30.0720   -37.2140 h1         1 2OI       0.044033
     36 H13         33.5330   -30.7190   -39.8820 hc         1 2OI       0.051200
     37 H14         34.0810   -32.1950   -40.6520 hc         1 2OI       0.051200
     38 H15         32.9490   -31.5230   -36.8740 hn         1 2OI       0.310500
     39 H16         38.5430   -30.3780   -41.0450 hn         1 2OI       0.312700
     40 H17         39.1840   -33.4980   -45.1830 ha         1 2OI       0.148500
     41 C14         36.2620   -31.2330   -42.3250 c3         1 2OI       0.022100
@<TRIPOS>BOND
     1     1     2 1   
     2     1    13 2   
     3     1    17 1   
     4     2     5 ar  
     5     2    15 ar  
     6     3    15 1   
     7     3    16 1   
     8     3    19 2   
     9     4    16 1   
    10     4    17 1   
    11     4    24 1   
    12     4    25 1   
    13     5     6 ar  
    14     5    26 1   
    15     6     7 ar  
    16     6    27 1   
    17     7     8 ar  
    18     7    22 1   
    19     8    15 ar  
    20     8    18 1   
    21     9    10 ar  
    22     9    12 ar  
    23     9    41 1   
    24    10    11 ar  
    25    10    30 1   
    26    11    20 ar  
    27    11    31 1   
    28    12    21 ar  
    29    12    32 1   
    30    14    22 1   
    31    14    33 1   
    32    14    34 1   
    33    14    35 1   
    34    16    36 1   
    35    16    37 1   
    36    17    38 1   
    37    18    19 1   
    38    18    39 1   
    39    19    41 1   
    40    20    21 ar  
    41    20    23 1   
    42    21    40 1   
    43    28    41 1   
    44    29    41 1   
@<TRIPOS>SUBSTRUCTURE
     1 2OI         1 TEMP              0 ****  ****    0 ROOT
