@<TRIPOS>MOLECULE
2OJ
  109   113     1     0     0
SMALL
No Charge or Current Charge


@<TRIPOS>ATOM
      1 Cl1          8.3970    -5.3460    -1.3920 cl         1 2OJ      -0.130000
      2 C2           8.7630    -3.6480    -1.4070 cc         1 2OJ      -0.025000
      3 S3           7.5060    -2.4140    -1.4040 ss         1 2OJ       0.274000
      4 C4          10.0210    -3.1010    -1.4230 cd         1 2OJ      -0.126000
      5 C5          10.0130    -1.6780    -1.4310 cd         1 2OJ      -0.076000
      6 C6           8.7410    -1.1550    -1.4210 cc         1 2OJ      -0.285500
      7 C7           8.4660     0.2510    -1.4220 cc         1 2OJ       0.260500
      8 O8           9.4390     1.2190    -1.4270 os         1 2OJ      -0.060700
      9 N9           8.7820     2.5100    -1.4130 nc         1 2OJ      -0.353300
     10 C10          7.2440     0.8350    -1.4100 cd         1 2OJ      -0.219000
     11 C11          7.4870     2.2230    -1.4000 cd         1 2OJ       0.270300
     12 C12          6.4420     3.3160    -1.3790 c3         1 2OJ       0.132300
     13 O13          5.2130     2.7810    -0.8500 os         1 2OJ      -0.349100
     14 C14          4.0490     3.5170    -0.7610 ca         1 2OJ       0.158100
     15 C15          3.9860     4.8800    -1.1220 ca         1 2OJ      -0.212000
     16 C16          2.7690     5.5780    -1.0330 ca         1 2OJ      -0.043000
     17 C17          1.6150     4.9250    -0.5700 ca         1 2OJ      -0.209000
     18 C19          2.8880     2.8580    -0.3160 ca         1 2OJ      -0.110000
     19 N20          2.9420     1.4730     0.0030 ns         1 2OJ      -0.143000
     20 C21          2.1360     0.4440    -0.4620 c          1 2OJ       0.612100
     21 C22          2.2870    -0.9100     0.2620 c6         1 2OJ      -0.143700
     22 C23          2.8350    -2.0390    -0.6410 c6         1 2OJ      -0.067400
     23 C24          2.9530    -3.3710     0.1390 c6         1 2OJ       0.167800
     24 N25          1.6630    -3.7800     0.7900 n3         1 2OJ      -0.732600
     25 C26          1.7280    -5.1320     1.4390 c3         1 2OJ       0.192500
     26 C27          0.3870    -5.5690     2.0870 c3         1 2OJ      -0.094100
     27 C28          2.1930    -6.2530     0.4710 c3         1 2OJ      -0.094100
     28 C29          1.1890    -2.7000     1.7180 c6         1 2OJ       0.167800
     29 C30          1.0010    -1.3400     1.0050 c6         1 2OJ      -0.067400
     30 O31          1.3510     0.5800    -1.3960 o          1 2OJ      -0.600100
     31 C18          1.6750     3.5680    -0.2050 ca         1 2OJ       0.183100
     32 O32          0.5860     2.9100     0.3210 os         1 2OJ      -0.345100
     33 C33         -0.7630     3.2310    -0.0380 c3         1 2OJ       0.174600
     34 C34         -1.6160     2.0780     0.5150 c3         1 2OJ      -0.101400
     35 C35         -3.0520     2.0380    -0.0260 c3         1 2OJ       0.173600
     36 O36         -3.6110     0.8020     0.4380 os         1 2OJ      -0.434000
     37 C37         -4.8850     0.4220    -0.0950 c6         1 2OJ       0.385300
     38 O38         -5.8690     1.3390     0.4110 os         1 2OJ      -0.467000
     39 C46         -5.2460    -1.0360     0.3320 c6         1 2OJ       0.132300
     40 O47         -4.3090    -1.9950    -0.2320 os         1 2OJ      -0.453100
     41 C85         -3.1120    -2.2700     0.3770 c          1 2OJ       0.607100
     42 O86         -2.8010    -1.8990     1.4990 o          1 2OJ      -0.470000
     43 C87         -2.2870    -3.2480    -0.4410 c3         1 2OJ      -0.171100
     44 C44         -6.7020    -1.3730    -0.1220 c6         1 2OJ       0.158300
     45 O45         -7.1250    -2.6450     0.4320 os         1 2OJ      -0.448100
     46 C88         -6.8410    -3.8290    -0.1970 c          1 2OJ       0.604100
     47 C89         -7.3490    -5.0170     0.6040 c3         1 2OJ      -0.157100
     48 O90         -6.3510    -3.9260    -1.3130 o          1 2OJ      -0.471000
     49 C42         -7.7110    -0.2720     0.3170 c6         1 2OJ       0.127300
     50 O42         -9.0120    -0.5660    -0.2560 os         1 2OJ      -0.454100
     51 C91        -10.1720    -0.2990     0.4230 c          1 2OJ       0.598100
     52 C92        -11.3970    -0.6900    -0.3870 c3         1 2OJ      -0.155100
     53 O93        -10.2220     0.2000     1.5370 o          1 2OJ      -0.468000
     54 C39         -7.1960     1.1350    -0.1230 c6         1 2OJ       0.166300
     55 C40         -8.0810     2.3160     0.3750 c3         1 2OJ       0.171600
     56 O41         -7.5780     3.5540    -0.1710 os         1 2OJ      -0.444100
     57 C94         -8.2160     4.7140     0.1760 c          1 2OJ       0.594100
     58 O96         -9.1920     4.7770     0.9110 o          1 2OJ      -0.483000
     59 C95         -7.5660     5.9270    -0.4730 c3         1 2OJ      -0.156100
     60 H1          10.9290    -3.6960    -1.4270 ha         1 2OJ       0.152000
     61 H2          10.9190    -1.0760    -1.4410 ha         1 2OJ       0.153000
     62 H3           6.2800     0.3420    -1.4030 ha         1 2OJ       0.165000
     63 H4           6.8020     4.1470    -0.7590 h1         1 2OJ       0.063700
     64 H5           6.2980     3.6820    -2.4040 h1         1 2OJ       0.063700
     65 H6           4.8660     5.4100    -1.4750 ha         1 2OJ       0.123000
     66 H7           2.7250     6.6300    -1.3100 ha         1 2OJ       0.115000
     67 H8           0.6880     5.4850    -0.4790 ha         1 2OJ       0.123000
     68 H9           3.6190     1.2180     0.7100 hn         1 2OJ       0.162000
     69 H10          3.0460    -0.7480     1.0400 hc         1 2OJ       0.050700
     70 H11          2.1660    -2.1850    -1.5000 hc         1 2OJ       0.057200
     71 H12          3.8150    -1.7600    -1.0490 hc         1 2OJ       0.057200
     72 H13          3.2910    -4.1270    -0.5820 h1         1 2OJ       0.033700
     73 H14          3.7440    -3.2740     0.8980 h1         1 2OJ       0.033700
     74 H16          2.4680    -5.0930     2.2500 h1         1 2OJ       0.017700
     75 H17          0.4490    -6.6010     2.4510 hc         1 2OJ       0.039367
     76 H18          0.1360    -4.9480     2.9530 hc         1 2OJ       0.039367
     77 H19         -0.4330    -5.5130     1.3620 hc         1 2OJ       0.039367
     78 H20          3.2450    -6.1330     0.1920 hc         1 2OJ       0.039367
     79 H21          2.1070    -7.2380     0.9440 hc         1 2OJ       0.039367
     80 H22          1.5840    -6.2580    -0.4400 hc         1 2OJ       0.039367
     81 H23          0.2190    -2.9560     2.1630 h1         1 2OJ       0.033700
     82 H24          1.9020    -2.5750     2.5470 h1         1 2OJ       0.033700
     83 H25          0.7090    -0.5740     1.7370 hc         1 2OJ       0.057200
     84 H26          0.1700    -1.4200     0.2900 hc         1 2OJ       0.057200
     85 H27         -1.0810     4.1890     0.3930 h1         1 2OJ       0.038200
     86 H28         -0.8660     3.2750    -1.1300 h1         1 2OJ       0.038200
     87 H29         -1.1290     1.1300     0.2570 hc         1 2OJ       0.073200
     88 H30         -1.6420     2.1390     1.6100 hc         1 2OJ       0.073200
     89 H31         -3.6250     2.9000     0.3400 h1         1 2OJ       0.035700
     90 H32         -3.0310     2.0650    -1.1240 h1         1 2OJ       0.035700
     91 H33         -4.8530     0.4810    -1.1930 h2         1 2OJ       0.035700
     92 H34         -5.2140    -1.0950     1.4300 h1         1 2OJ       0.107700
     93 H35         -2.0780    -2.7990    -1.4180 hc         1 2OJ       0.081033
     94 H36         -1.3720    -3.5610     0.0710 hc         1 2OJ       0.081033
     95 H37         -2.9170    -4.1040    -0.7090 hc         1 2OJ       0.081033
     96 H38         -6.7300    -1.4260    -1.2210 h1         1 2OJ       0.095700
     97 H39         -6.8640    -5.0120     1.5870 hc         1 2OJ       0.071700
     98 H40         -8.3990    -4.8470     0.8620 hc         1 2OJ       0.071700
     99 H41         -7.2070    -5.9700     0.0820 hc         1 2OJ       0.071700
    100 H42         -7.7760    -0.3030     1.4150 h1         1 2OJ       0.101700
    101 H43        -11.3510    -0.1910    -1.3600 hc         1 2OJ       0.072700
    102 H44        -11.3130    -1.7470    -0.6630 hc         1 2OJ       0.072700
    103 H45        -12.3350    -0.4780     0.1380 hc         1 2OJ       0.072700
    104 H46         -7.1520     1.1800    -1.2210 h1         1 2OJ       0.059700
    105 H47         -9.1130     2.1550     0.0420 h1         1 2OJ       0.067200
    106 H48         -8.0690     2.3330     1.4730 h1         1 2OJ       0.067200
    107 H49         -7.5340     5.7720    -1.5570 hc         1 2OJ       0.070033
    108 H50         -8.0650     6.8650    -0.2090 hc         1 2OJ       0.070033
    109 H51         -6.5030     5.9400    -0.2090 hc         1 2OJ       0.070033
@<TRIPOS>BOND
     1     1     2 1   
     2     2     3 1   
     3     2     4 2   
     4     3     6 1   
     5     4     5 1   
     6     4    60 1   
     7     5     6 2   
     8     5    61 1   
     9     6     7 1   
    10     7     8 1   
    11     7    10 2   
    12     8     9 1   
    13     9    11 2   
    14    10    11 1   
    15    10    62 1   
    16    11    12 1   
    17    12    13 1   
    18    12    63 1   
    19    12    64 1   
    20    13    14 1   
    21    14    15 ar  
    22    14    18 ar  
    23    15    16 ar  
    24    15    65 1   
    25    16    17 ar  
    26    16    66 1   
    27    17    31 ar  
    28    17    67 1   
    29    18    19 1   
    30    18    31 ar  
    31    19    20 1   
    32    19    68 1   
    33    20    21 1   
    34    20    30 2   
    35    21    22 1   
    36    21    29 1   
    37    21    69 1   
    38    22    23 1   
    39    22    70 1   
    40    22    71 1   
    41    23    24 1   
    42    23    72 1   
    43    23    73 1   
    44    24    25 1   
    45    24    28 1   
    46    25    26 1   
    47    25    27 1   
    48    25    74 1   
    49    26    75 1   
    50    26    76 1   
    51    26    77 1   
    52    27    78 1   
    53    27    79 1   
    54    27    80 1   
    55    28    29 1   
    56    28    81 1   
    57    28    82 1   
    58    29    83 1   
    59    29    84 1   
    60    31    32 1   
    61    32    33 1   
    62    33    34 1   
    63    33    85 1   
    64    33    86 1   
    65    34    35 1   
    66    34    87 1   
    67    34    88 1   
    68    35    36 1   
    69    35    89 1   
    70    35    90 1   
    71    36    37 1   
    72    37    38 1   
    73    37    39 1   
    74    37    91 1   
    75    38    54 1   
    76    39    40 1   
    77    39    44 1   
    78    39    92 1   
    79    40    41 1   
    80    41    42 2   
    81    41    43 1   
    82    43    93 1   
    83    43    94 1   
    84    43    95 1   
    85    44    45 1   
    86    44    49 1   
    87    44    96 1   
    88    45    46 1   
    89    46    47 1   
    90    46    48 2   
    91    47    97 1   
    92    47    98 1   
    93    47    99 1   
    94    49    50 1   
    95    49    54 1   
    96    49   100 1   
    97    50    51 1   
    98    51    52 1   
    99    51    53 2   
   100    52   101 1   
   101    52   102 1   
   102    52   103 1   
   103    54    55 1   
   104    54   104 1   
   105    55    56 1   
   106    55   105 1   
   107    55   106 1   
   108    56    57 1   
   109    57    58 2   
   110    57    59 1   
   111    59   107 1   
   112    59   108 1   
   113    59   109 1   
@<TRIPOS>SUBSTRUCTURE
     1 2OJ         1 TEMP              0 ****  ****    0 ROOT
