@<TRIPOS>MOLECULE
2OJ
  109   113     1     0     0
SMALL
bcc


@<TRIPOS>ATOM
      1 CL1          6.5830    -5.8330    -1.0780 cl         1 2OJ      -0.038400
      2 C2           7.2180    -4.3070    -1.4860 cc         1 2OJ       0.028300
      3 S3           6.2730    -2.8950    -1.2440 ss         1 2OJ      -0.015800
      4 C4           8.4460    -4.0380    -2.0050 cd         1 2OJ      -0.144000
      5 C5           8.6340    -2.6510    -2.2160 cd         1 2OJ      -0.094000
      6 C6           7.5480    -1.9030    -1.8560 cc         1 2OJ      -0.140600
      7 C7           7.3740    -0.4760    -1.9300 cc         1 2OJ       0.370200
      8 O8           8.4380     0.2650    -2.2560 os         1 2OJ      -0.105100
      9 N9           8.0950     1.5840    -2.2630 nc         1 2OJ      -0.353300
     10 C10          6.3070     0.3380    -1.7230 cd         1 2OJ      -0.367600
     11 C11          6.8330     1.6300    -1.9540 cd         1 2OJ       0.335600
     12 C12          6.0870     2.9200    -1.8970 c3         1 2OJ       0.109100
     13 O13          5.1590     2.7780    -0.8430 os         1 2OJ      -0.325900
     14 C14          4.0580     3.5530    -0.8220 ca         1 2OJ       0.158100
     15 C15          3.9640     4.7990    -1.4330 ca         1 2OJ      -0.230000
     16 C16          2.7670     5.4950    -1.3490 ca         1 2OJ      -0.061000
     17 C17          1.6760     4.9890    -0.6580 ca         1 2OJ      -0.227000
     18 C19          2.9700     3.0190    -0.1300 ca         1 2OJ      -0.017400
     19 N20          3.0520     1.7280     0.4200 ns         1 2OJ      -0.469100
     20 C21          2.3420     0.6890    -0.0780 c          1 2OJ       0.679100
     21 C22          2.4970    -0.6100     0.6830 c6         1 2OJ      -0.143700
     22 C23          2.5270    -1.8170    -0.2430 c6         1 2OJ      -0.067400
     23 C24          2.5630    -3.1060     0.5630 c6         1 2OJ       0.167800
     24 N25          1.4030    -3.2140     1.4330 n3         1 2OJ      -0.732600
     25 C26          1.2800    -4.5430     2.0370 c3         1 2OJ       0.192500
     26 C27          0.2160    -4.5820     3.1310 c3         1 2OJ      -0.094100
     27 C28          0.9120    -5.5850     0.9820 c3         1 2OJ      -0.094100
     28 C29          1.4070    -2.1140     2.3830 c6         1 2OJ       0.167800
     29 C30          1.3420    -0.7700     1.6740 c6         1 2OJ      -0.067400
     30 O31          1.6110     0.7980    -1.0480 o          1 2OJ      -0.600100
     31 C18          1.7840     3.7510    -0.0300 ca         1 2OJ       0.183100
     32 O32          0.8040     3.1820     0.6860 os         1 2OJ      -0.321900
     33 C33         -0.5510     3.4220     0.3330 c3         1 2OJ       0.151400
     34 C34         -1.3370     2.2070     0.7800 c3         1 2OJ      -0.101400
     35 C35         -2.8090     2.3160     0.4370 c3         1 2OJ       0.150400
     36 O36         -3.4250     1.0930     0.8180 os         1 2OJ      -0.387600
     37 C37         -4.5190     0.7020     0.1000 c6         1 2OJ       0.338900
     38 O38         -5.6720     1.2870     0.6550 os         1 2OJ      -0.420600
     39 C46         -4.6420    -0.8180     0.1960 c6         1 2OJ       0.109100
     40 O47         -3.5290    -1.4090    -0.4500 os         1 2OJ      -0.429900
     41 C85         -2.5110    -1.8980     0.2790 c          1 2OJ       0.656100
     42 O86         -2.5290    -1.9790     1.4770 o          1 2OJ      -0.519000
     43 C87         -1.3820    -2.3160    -0.6100 c3         1 2OJ      -0.171100
     44 C44         -5.8930    -1.2510    -0.5480 c6         1 2OJ       0.135100
     45 O45         -6.1040    -2.6390    -0.3410 os         1 2OJ      -0.424900
     46 C88         -6.0270    -3.4900    -1.3740 c          1 2OJ       0.653100
     47 C89         -6.3240    -4.8880    -0.9300 c3         1 2OJ      -0.157100
     48 O90         -5.7650    -3.1550    -2.4980 o          1 2OJ      -0.520000
     49 C42         -7.1060    -0.5050    -0.0090 c6         1 2OJ       0.104100
     50 O42         -8.2000    -0.8560    -0.8460 os         1 2OJ      -0.430900
     51 C91         -9.3580    -1.2550    -0.3000 c          1 2OJ       0.647100
     52 C92        -10.3180    -1.7050    -1.3570 c3         1 2OJ      -0.155100
     53 O93         -9.5700    -1.2500     0.8830 o          1 2OJ      -0.517000
     54 C39         -6.8480     1.0070    -0.0690 c6         1 2OJ       0.143100
     55 C40         -7.9770     1.7920     0.5610 c3         1 2OJ       0.148400
     56 O41         -7.6610     3.1720     0.4010 os         1 2OJ      -0.420900
     57 C94         -8.5460     4.0640     0.8410 c          1 2OJ       0.643100
     58 O96         -9.5890     3.7540     1.3600 o          1 2OJ      -0.532000
     59 C95         -8.0690     5.4660     0.6180 c3         1 2OJ      -0.156100
     60 H1           9.1840    -4.7940    -2.2280 ha         1 2OJ       0.170000
     61 H2           9.5410    -2.2330    -2.6260 ha         1 2OJ       0.171000
     62 H3           5.2990     0.0710    -1.4540 ha         1 2OJ       0.183000
     63 H4           6.7730     3.7560    -1.7340 h1         1 2OJ       0.063700
     64 H5           5.5730     3.0860    -2.8500 h1         1 2OJ       0.063700
     65 H6           4.8020     5.2270    -1.9670 ha         1 2OJ       0.141000
     66 H7           2.6840     6.4610    -1.8290 ha         1 2OJ       0.133000
     67 H8           0.7620     5.5660    -0.6000 ha         1 2OJ       0.141000
     68 H9           3.6960     1.5610     1.1780 hn         1 2OJ       0.328500
     69 H10          3.4310    -0.5900     1.2590 hc         1 2OJ       0.050700
     70 H11          1.6410    -1.8200    -0.8810 hc         1 2OJ       0.057200
     71 H12          3.3980    -1.7790    -0.9030 hc         1 2OJ       0.057200
     72 H13          2.5870    -3.9450    -0.1320 h1         1 2OJ       0.033700
     73 H14          3.5030    -3.1510     1.1430 h1         1 2OJ       0.033700
     74 H16          2.2410    -4.8420     2.4940 h1         1 2OJ       0.017700
     75 H17          0.0320    -5.6170     3.4210 hc         1 2OJ       0.039367
     76 H18          0.5100    -4.0480     4.0340 hc         1 2OJ       0.039367
     77 H19         -0.7250    -4.1600     2.7720 hc         1 2OJ       0.039367
     78 H20          1.6380    -5.6650     0.1740 hc         1 2OJ       0.039367
     79 H21          0.8390    -6.5700     1.4420 hc         1 2OJ       0.039367
     80 H22         -0.0570    -5.3460     0.5390 hc         1 2OJ       0.039367
     81 H23          0.5360    -2.1830     3.0310 h1         1 2OJ       0.033700
     82 H24          2.2990    -2.1430     3.0350 h1         1 2OJ       0.033700
     83 H25          1.3560     0.0320     2.4160 hc         1 2OJ       0.057200
     84 H26          0.3910    -0.7000     1.1420 hc         1 2OJ       0.057200
     85 H27         -0.9170     4.3350     0.8150 h1         1 2OJ       0.038200
     86 H28         -0.6440     3.5580    -0.7500 h1         1 2OJ       0.038200
     87 H29         -0.9210     1.3260     0.2850 hc         1 2OJ       0.073200
     88 H30         -1.2180     2.0670     1.8580 hc         1 2OJ       0.073200
     89 H31         -3.2760     3.1580     0.9580 h1         1 2OJ       0.035700
     90 H32         -2.9360     2.4840    -0.6390 h1         1 2OJ       0.035700
     91 H33         -4.4310     0.9960    -0.9620 h2         1 2OJ       0.035700
     92 H34         -4.7020    -1.1160     1.2470 h1         1 2OJ       0.107700
     93 H35         -0.9490    -1.4360    -1.0900 hc         1 2OJ       0.081033
     94 H36         -0.6040    -2.8100    -0.0310 hc         1 2OJ       0.081033
     95 H37         -1.7350    -2.9730    -1.4050 hc         1 2OJ       0.081033
     96 H38         -5.7780    -1.0340    -1.6150 h1         1 2OJ       0.095700
     97 H39         -5.6810    -5.1780    -0.1000 hc         1 2OJ       0.071700
     98 H40         -7.3540    -4.9590    -0.5790 hc         1 2OJ       0.071700
     99 H41         -6.1850    -5.5840    -1.7520 hc         1 2OJ       0.071700
    100 H42         -7.2950    -0.8010     1.0280 h1         1 2OJ       0.101700
    101 H43        -10.3660    -0.9900    -2.1770 hc         1 2OJ       0.072700
    102 H44         -9.9840    -2.6560    -1.7760 hc         1 2OJ       0.072700
    103 H45        -11.3090    -1.8420    -0.9340 hc         1 2OJ       0.072700
    104 H46         -6.7370     1.3100    -1.1220 h1         1 2OJ       0.059700
    105 H47         -8.9210     1.5630     0.0640 h1         1 2OJ       0.067200
    106 H48         -8.0750     1.5380     1.6200 h1         1 2OJ       0.067200
    107 H49         -7.7470     5.6110    -0.4120 hc         1 2OJ       0.070033
    108 H50         -8.8570     6.1760     0.8530 hc         1 2OJ       0.070033
    109 H51         -7.2100     5.6730     1.2590 hc         1 2OJ       0.070033
@<TRIPOS>BOND
     1     1     2 1   
     2     2     3 1   
     3     2     4 2   
     4     3     6 1   
     5     4     5 1   
     6     4    60 1   
     7     5     6 2   
     8     5    61 1   
     9     6     7 1   
    10     7     8 1   
    11     7    10 2   
    12     8     9 1   
    13     9    11 2   
    14    10    11 1   
    15    10    62 1   
    16    11    12 1   
    17    12    13 1   
    18    12    63 1   
    19    12    64 1   
    20    13    14 1   
    21    14    15 ar  
    22    14    18 ar  
    23    15    16 ar  
    24    15    65 1   
    25    16    17 ar  
    26    16    66 1   
    27    17    31 ar  
    28    17    67 1   
    29    18    19 1   
    30    18    31 ar  
    31    19    20 1   
    32    19    68 1   
    33    20    21 1   
    34    20    30 2   
    35    21    22 1   
    36    21    29 1   
    37    21    69 1   
    38    22    23 1   
    39    22    70 1   
    40    22    71 1   
    41    23    24 1   
    42    23    72 1   
    43    23    73 1   
    44    24    25 1   
    45    24    28 1   
    46    25    26 1   
    47    25    27 1   
    48    25    74 1   
    49    26    75 1   
    50    26    76 1   
    51    26    77 1   
    52    27    78 1   
    53    27    79 1   
    54    27    80 1   
    55    28    29 1   
    56    28    81 1   
    57    28    82 1   
    58    29    83 1   
    59    29    84 1   
    60    31    32 1   
    61    32    33 1   
    62    33    34 1   
    63    33    85 1   
    64    33    86 1   
    65    34    35 1   
    66    34    87 1   
    67    34    88 1   
    68    35    36 1   
    69    35    89 1   
    70    35    90 1   
    71    36    37 1   
    72    37    38 1   
    73    37    39 1   
    74    37    91 1   
    75    38    54 1   
    76    39    40 1   
    77    39    44 1   
    78    39    92 1   
    79    40    41 1   
    80    41    42 2   
    81    41    43 1   
    82    43    93 1   
    83    43    94 1   
    84    43    95 1   
    85    44    45 1   
    86    44    49 1   
    87    44    96 1   
    88    45    46 1   
    89    46    47 1   
    90    46    48 2   
    91    47    97 1   
    92    47    98 1   
    93    47    99 1   
    94    49    50 1   
    95    49    54 1   
    96    49   100 1   
    97    50    51 1   
    98    51    52 1   
    99    51    53 2   
   100    52   101 1   
   101    52   102 1   
   102    52   103 1   
   103    54    55 1   
   104    54   104 1   
   105    55    56 1   
   106    55   105 1   
   107    55   106 1   
   108    56    57 1   
   109    57    58 2   
   110    57    59 1   
   111    59   107 1   
   112    59   108 1   
   113    59   109 1   
@<TRIPOS>SUBSTRUCTURE
     1 2OJ         1 TEMP              0 ****  ****    0 ROOT
