@<TRIPOS>MOLECULE
2OK
   46    48     1     0     0
SMALL
abcg2


@<TRIPOS>ATOM
      1 CAB         -5.4350    -2.4140     1.7910 c3         1 2OK       0.146900
      2 OAP         -5.9080    -1.3620     0.9730 os         1 2OK      -0.340100
      3 CAU         -5.0390    -0.7370     0.1600 ca         1 2OK       0.155100
      4 CAL         -3.6890    -1.0660     0.0670 ca         1 2OK      -0.210000
      5 CAI         -5.5590     0.2960    -0.6210 ca         1 2OK      -0.150000
      6 CAR         -4.7510     1.0070    -1.4960 ca         1 2OK      -0.029300
      7 CAC         -5.3230     2.1340    -2.3060 c3         1 2OK      -0.050800
      8 CAJ         -3.3990     0.6790    -1.5960 ca         1 2OK      -0.157000
      9 CAV         -2.8990    -0.3460    -0.8170 ca         1 2OK       0.132100
     10 OAQ         -1.5730    -0.7040    -0.9370 os         1 2OK      -0.252200
     11 CAW         -0.6410    -0.0220    -0.2380 ca         1 2OK       0.179100
     12 CAM          0.6820    -0.3860    -0.4520 ca         1 2OK      -0.199000
     13 CAK         -0.9330     0.9980     0.6570 ca         1 2OK      -0.245000
     14 CAS          0.1300     1.6220     1.3020 ca         1 2OK       0.393300
     15 CAD         -0.1150     2.7370     2.2720 c3         1 2OK      -0.145400
     16 NAN          1.3960     1.2730     1.1040 nb         1 2OK      -0.711000
     17 CAY          1.6750     0.2860     0.2510 cp         1 2OK       0.453500
     18 CAX          3.1040    -0.0470     0.0720 cp         1 2OK      -0.190500
     19 CAG          3.5200    -1.2700    -0.4620 ca         1 2OK      -0.042000
     20 CAE          4.8590    -1.5650    -0.6240 ca         1 2OK      -0.183500
     21 CAT          5.8350    -0.6370    -0.2560 ca         1 2OK       0.152100
     22 OAO          7.1130    -1.0050    -0.4490 os         1 2OK      -0.341100
     23 CAA          8.1390    -0.1110    -0.0650 c3         1 2OK       0.148900
     24 CAF          5.4390     0.5870     0.2820 ca         1 2OK      -0.183500
     25 CAH          4.0900     0.8640     0.4440 ca         1 2OK      -0.042000
     26 H1          -4.6600    -2.0760     2.4840 h1         1 2OK       0.043700
     27 H2          -6.2890    -2.7660     2.3650 h1         1 2OK       0.043700
     28 H3          -5.0430    -3.2450     1.1990 h1         1 2OK       0.043700
     29 H4          -3.2440    -1.8630     0.6480 ha         1 2OK       0.135000
     30 H5          -6.6120     0.5390    -0.5360 ha         1 2OK       0.130000
     31 H6          -5.4080     3.0390    -1.7010 hc         1 2OK       0.046700
     32 H7          -4.6940     2.3730    -3.1620 hc         1 2OK       0.046700
     33 H8          -6.3200     1.8970    -2.6740 hc         1 2OK       0.046700
     34 H9          -2.7480     1.2140    -2.2760 ha         1 2OK       0.131000
     35 H10          0.9120    -1.1650    -1.1650 ha         1 2OK       0.138000
     36 H11         -1.9470     1.3160     0.8550 ha         1 2OK       0.136000
     37 H12          0.2690     2.4780     3.2590 hc         1 2OK       0.051033
     38 H13          0.4030     3.6420     1.9520 hc         1 2OK       0.051033
     39 H14         -1.1740     2.9680     2.3670 hc         1 2OK       0.051033
     40 H15          2.7950    -2.0230    -0.7430 ha         1 2OK       0.124000
     41 H16          5.1600    -2.5220    -1.0310 ha         1 2OK       0.122500
     42 H17          8.0940     0.8260    -0.6270 h1         1 2OK       0.041700
     43 H18          8.1040     0.1160     1.0030 h1         1 2OK       0.041700
     44 H19          9.0810    -0.6070    -0.2870 h1         1 2OK       0.041700
     45 H20          6.1630     1.3350     0.5750 ha         1 2OK       0.122500
     46 H21          3.7970     1.8160     0.8640 ha         1 2OK       0.124000
@<TRIPOS>BOND
     1     1     2 1   
     2     1    26 1   
     3     1    27 1   
     4     1    28 1   
     5     2     3 1   
     6     3     4 ar  
     7     3     5 ar  
     8     4     9 ar  
     9     4    29 1   
    10     5     6 ar  
    11     5    30 1   
    12     6     7 1   
    13     6     8 ar  
    14     7    31 1   
    15     7    32 1   
    16     7    33 1   
    17     8     9 ar  
    18     8    34 1   
    19     9    10 1   
    20    10    11 1   
    21    11    12 ar  
    22    11    13 ar  
    23    12    17 ar  
    24    12    35 1   
    25    13    14 ar  
    26    13    36 1   
    27    14    15 1   
    28    14    16 ar  
    29    15    37 1   
    30    15    38 1   
    31    15    39 1   
    32    16    17 ar  
    33    17    18 1   
    34    18    19 ar  
    35    18    25 ar  
    36    19    20 ar  
    37    19    40 1   
    38    20    21 ar  
    39    20    41 1   
    40    21    22 1   
    41    21    24 ar  
    42    22    23 1   
    43    23    42 1   
    44    23    43 1   
    45    23    44 1   
    46    24    25 ar  
    47    24    45 1   
    48    25    46 1   
@<TRIPOS>SUBSTRUCTURE
     1 2OK         1 TEMP              0 ****  ****    0 ROOT
