@<TRIPOS>MOLECULE
2OK
   46    48     1     0     0
SMALL
No Charge or Current Charge


@<TRIPOS>ATOM
      1 CAB         -6.4510    -2.7410     1.1050 c3         1 2OK       0.146900
      2 OAP         -6.4940    -1.5620     0.2810 os         1 2OK      -0.340100
      3 CAU         -5.3500    -0.9020    -0.1210 ca         1 2OK       0.155100
      4 CAL         -4.0580    -1.3340     0.2430 ca         1 2OK      -0.210000
      5 CAI         -5.5000     0.2410    -0.9230 ca         1 2OK      -0.150000
      6 CAR         -4.3750     0.9570    -1.3720 ca         1 2OK      -0.029300
      7 CAC         -4.5460     2.1870    -2.2500 c3         1 2OK      -0.050800
      8 CAJ         -3.0890     0.5180    -1.0090 ca         1 2OK      -0.157000
      9 CAV         -2.9330    -0.6180    -0.1930 ca         1 2OK       0.132100
     10 OAQ         -1.6830    -1.0670     0.1640 os         1 2OK      -0.252200
     11 CAW         -0.6580    -0.2200     0.5190 ca         1 2OK       0.179100
     12 CAM          0.6570    -0.5510     0.1860 ca         1 2OK      -0.199000
     13 CAK         -0.8920     0.9590     1.2390 ca         1 2OK      -0.245000
     14 CAS          0.1980     1.7720     1.5680 ca         1 2OK       0.393300
     15 CAD          0.0060     3.0640     2.3380 c3         1 2OK      -0.145400
     16 NAN          1.4650     1.4580     1.2340 nb         1 2OK      -0.711000
     17 CAY          1.7120     0.3110     0.5620 cp         1 2OK       0.453500
     18 CAX          3.1520     0.0180     0.2320 cp         1 2OK      -0.190500
     19 CAG          3.6010    -1.3070    -0.0130 ca         1 2OK      -0.042000
     20 CAE          4.9460    -1.5740    -0.3210 ca         1 2OK      -0.183500
     21 CAT          5.8820    -0.5340    -0.3930 ca         1 2OK       0.152100
     22 OAO          7.1870    -0.8590    -0.7010 os         1 2OK      -0.341100
     23 CAA          8.2230     0.1350    -0.7980 c3         1 2OK       0.148900
     24 CAF          5.4630     0.7900    -0.1500 ca         1 2OK      -0.183500
     25 CAH          4.1190     1.0590     0.1600 ca         1 2OK      -0.042000
     26 H1          -5.9700    -2.5270     2.0680 h1         1 2OK       0.043700
     27 H2          -7.4670    -3.1020     1.3050 h1         1 2OK       0.043700
     28 H3          -5.8980    -3.5460     0.6040 h1         1 2OK       0.043700
     29 H4          -3.9060    -2.2140     0.8600 ha         1 2OK       0.135000
     30 H5          -6.4990     0.5680    -1.2010 ha         1 2OK       0.130000
     31 H6          -3.7470     2.9170    -2.0740 hc         1 2OK       0.046700
     32 H7          -4.5230     1.9140    -3.3110 hc         1 2OK       0.046700
     33 H8          -5.5000     2.6900    -2.0530 hc         1 2OK       0.046700
     34 H9          -2.2140     1.0570    -1.3630 ha         1 2OK       0.131000
     35 H10          0.8510    -1.4570    -0.3750 ha         1 2OK       0.138000
     36 H11         -1.8960     1.2420     1.5390 ha         1 2OK       0.136000
     37 H12          0.1420     2.8980     3.4130 hc         1 2OK       0.051033
     38 H13          0.7230     3.8300     2.0210 hc         1 2OK       0.051033
     39 H14         -1.0010     3.4710     2.1860 hc         1 2OK       0.051033
     40 H15          2.9120    -2.1460     0.0510 ha         1 2OK       0.124000
     41 H16          5.2650    -2.5970    -0.5020 ha         1 2OK       0.122500
     42 H17          7.9880     0.8680    -1.5800 h1         1 2OK       0.041700
     43 H18          8.3470     0.6640     0.1560 h1         1 2OK       0.041700
     44 H19          9.1800    -0.3370    -1.0510 h1         1 2OK       0.041700
     45 H20          6.1620     1.6200    -0.1960 ha         1 2OK       0.122500
     46 H21          3.8240     2.0910     0.3380 ha         1 2OK       0.124000
@<TRIPOS>BOND
     1     1     2 1   
     2     1    26 1   
     3     1    27 1   
     4     1    28 1   
     5     2     3 1   
     6     3     4 ar  
     7     3     5 ar  
     8     4     9 ar  
     9     4    29 1   
    10     5     6 ar  
    11     5    30 1   
    12     6     7 1   
    13     6     8 ar  
    14     7    31 1   
    15     7    32 1   
    16     7    33 1   
    17     8     9 ar  
    18     8    34 1   
    19     9    10 1   
    20    10    11 1   
    21    11    12 ar  
    22    11    13 ar  
    23    12    17 ar  
    24    12    35 1   
    25    13    14 ar  
    26    13    36 1   
    27    14    15 1   
    28    14    16 ar  
    29    15    37 1   
    30    15    38 1   
    31    15    39 1   
    32    16    17 ar  
    33    17    18 1   
    34    18    19 ar  
    35    18    25 ar  
    36    19    20 ar  
    37    19    40 1   
    38    20    21 ar  
    39    20    41 1   
    40    21    22 1   
    41    21    24 ar  
    42    22    23 1   
    43    23    42 1   
    44    23    43 1   
    45    23    44 1   
    46    24    25 ar  
    47    24    45 1   
    48    25    46 1   
@<TRIPOS>SUBSTRUCTURE
     1 2OK         1 TEMP              0 ****  ****    0 ROOT
