@<TRIPOS>MOLECULE
2OL
   56    59     1     0     0
SMALL
No Charge or Current Charge


@<TRIPOS>ATOM
      1 C1           7.6310     0.5580     0.2020 c3         1 2OL       0.146900
      2 O2           6.4050    -0.1610     0.4210 os         1 2OL      -0.465000
      3 C3           6.3860    -1.4950    -0.1340 c3         1 2OL       0.140600
      4 C4           5.0120    -2.1470     0.1690 c3         1 2OL       0.235800
      5 N5           3.9030    -1.2780    -0.2590 nu         1 2OL      -0.882400
      6 C6           2.5820    -1.5500    -0.1020 cc         1 2OL       0.699700
      7 N7           2.1150    -2.7590     0.2350 nd         1 2OL      -0.666100
      8 C8           0.7290    -2.5660     0.2800 ca         1 2OL       0.135400
      9 C9          -0.2580    -3.5090     0.5980 ca         1 2OL      -0.085000
     10 C10         -1.6100    -3.0950     0.5950 ca         1 2OL      -0.092000
     11 C11         -1.9550    -1.7570     0.2810 ca         1 2OL       0.014000
     12 C12         -0.9460    -0.8210    -0.0350 ca         1 2OL      -0.075000
     13 C13          0.3790    -1.2770    -0.0280 ca         1 2OL      -0.083200
     14 N14          1.5540    -0.6400    -0.2810 na         1 2OL      -0.239100
     15 C15          1.7380     0.6930    -0.6210 ca         1 2OL       0.295500
     16 C16          1.0750     1.1630    -1.7710 ca         1 2OL      -0.304000
     17 C17          1.2360     2.5080    -2.1400 ca         1 2OL       0.171900
     18 N18          2.0070     3.3410    -1.4200 nb         1 2OL      -0.258000
     19 C19          2.5960     2.8030    -0.3470 ca         1 2OL       0.421900
     20 N20          2.5120     1.5410     0.0900 nb         1 2OL      -0.320000
     21 N21          3.3790     3.6250     0.3860 nv         1 2OL      -1.071900
     22 C22         -3.3280    -1.3470     0.2850 cg         1 2OL      -0.102000
     23 C23         -4.4870    -0.9820     0.2820 c1         1 2OL      -0.160100
     24 C24         -5.8850    -0.5030     0.2660 c6         1 2OL       0.275100
     25 C25         -6.1090     0.6250     1.3160 c6         1 2OL      -0.080400
     26 C26         -5.4000     1.9520     0.9270 c6         1 2OL      -0.072400
     27 C27         -5.8290     2.4240    -0.4830 c6         1 2OL      -0.075400
     28 C28         -5.5840     1.3230    -1.5440 c6         1 2OL      -0.072400
     29 C29         -6.2930    -0.0030    -1.1520 c6         1 2OL      -0.080400
     30 O30         -6.6850    -1.6290     0.6130 oh         1 2OL      -0.650000
     31 H1           7.8280     0.6750    -0.8710 h1         1 2OL       0.030033
     32 H2           7.5720     1.5580     0.6500 h1         1 2OL       0.030033
     33 H3           8.4790     0.0290     0.6560 h1         1 2OL       0.030033
     34 H4           6.5340    -1.4610    -1.2210 h1         1 2OL       0.035200
     35 H5           7.1820    -2.1130     0.3010 h1         1 2OL       0.035200
     36 H6           4.9580    -3.1150    -0.3470 h1         1 2OL       0.061700
     37 H7           4.9430    -2.3400     1.2480 h1         1 2OL       0.061700
     38 H8           4.0990    -0.2790    -0.2730 hn         1 2OL       0.534000
     39 H9           0.0120    -4.5320     0.8420 ha         1 2OL       0.131000
     40 H10         -2.3900    -3.8140     0.8400 ha         1 2OL       0.118000
     41 H11         -1.1900     0.2110    -0.2740 ha         1 2OL       0.127000
     42 H12          0.4520     0.5030    -2.3680 ha         1 2OL       0.150000
     43 H13          0.7460     2.9210    -3.0210 h4         1 2OL       0.025100
     44 H14          3.6650     4.5100    -0.0280 hn         1 2OL       0.508500
     45 H15          4.0180     3.2110     1.0600 hn         1 2OL       0.508500
     46 H16         -7.1860     0.8160     1.4190 hc         1 2OL       0.052200
     47 H17         -5.7640     0.2970     2.3070 hc         1 2OL       0.052200
     48 H18         -5.6370     2.7290     1.6660 hc         1 2OL       0.044200
     49 H19         -4.3090     1.8210     0.9590 hc         1 2OL       0.044200
     50 H20         -6.8930     2.6960    -0.4730 hc         1 2OL       0.039200
     51 H21         -5.2770     3.3340    -0.7560 hc         1 2OL       0.039200
     52 H22         -5.9490     1.6630    -2.5220 hc         1 2OL       0.044200
     53 H23         -4.5040     1.1540    -1.6610 hc         1 2OL       0.044200
     54 H24         -6.0780    -0.7740    -1.9060 hc         1 2OL       0.052200
     55 H25         -7.3800     0.1550    -1.1820 hc         1 2OL       0.052200
     56 H26         -6.2540    -2.3970     0.1830 ho         1 2OL       0.448000
@<TRIPOS>BOND
     1     1     2 1   
     2     1    31 1   
     3     1    32 1   
     4     1    33 1   
     5     2     3 1   
     6     3     4 1   
     7     3    34 1   
     8     3    35 1   
     9     4     5 1   
    10     4    36 1   
    11     4    37 1   
    12     5     6 1   
    13     5    38 1   
    14     6     7 2   
    15     6    14 1   
    16     7     8 1   
    17     8     9 ar  
    18     8    13 ar  
    19     9    10 ar  
    20     9    39 1   
    21    10    11 ar  
    22    10    40 1   
    23    11    12 ar  
    24    11    22 1   
    25    12    13 ar  
    26    12    41 1   
    27    13    14 1   
    28    14    15 1   
    29    15    16 ar  
    30    15    20 ar  
    31    16    17 ar  
    32    16    42 1   
    33    17    18 ar  
    34    17    43 1   
    35    18    19 ar  
    36    19    20 ar  
    37    19    21 1   
    38    21    44 1   
    39    21    45 1   
    40    22    23 3   
    41    23    24 1   
    42    24    25 1   
    43    24    29 1   
    44    24    30 1   
    45    25    26 1   
    46    25    46 1   
    47    25    47 1   
    48    26    27 1   
    49    26    48 1   
    50    26    49 1   
    51    27    28 1   
    52    27    50 1   
    53    27    51 1   
    54    28    29 1   
    55    28    52 1   
    56    28    53 1   
    57    29    54 1   
    58    29    55 1   
    59    30    56 1   
@<TRIPOS>SUBSTRUCTURE
     1 2OL         1 TEMP              0 ****  ****    0 ROOT
