@<TRIPOS>MOLECULE
2OL
   56    59     1     0     0
SMALL
abcg2


@<TRIPOS>ATOM
      1 C1           7.7470     0.0750     0.0560 c3         1 2OL       0.146900
      2 O2           6.5520    -0.6090     0.3360 os         1 2OL      -0.465000
      3 C3           6.2010    -1.5350    -0.6620 c3         1 2OL       0.140600
      4 C4           4.8440    -2.1120    -0.3310 c3         1 2OL       0.235800
      5 N5           3.8760    -1.0410    -0.2530 nu         1 2OL      -0.882400
      6 C6           2.5690    -1.2910    -0.1600 cc         1 2OL       0.699700
      7 N7           2.0180    -2.4710    -0.2630 nd         1 2OL      -0.666100
      8 C8           0.6680    -2.2610    -0.1510 ca         1 2OL       0.135400
      9 C9          -0.3680    -3.1870    -0.1580 ca         1 2OL      -0.085000
     10 C10         -1.6630    -2.7310     0.0260 ca         1 2OL      -0.092000
     11 C11         -1.9360    -1.3710     0.2350 ca         1 2OL       0.014000
     12 C12         -0.8950    -0.4320     0.2460 ca         1 2OL      -0.075000
     13 C13          0.3840    -0.8960     0.0250 ca         1 2OL      -0.083200
     14 N14          1.6310    -0.2690     0.0060 na         1 2OL      -0.239100
     15 C15          1.8920     1.1000     0.0420 ca         1 2OL       0.295500
     16 C16          0.9820     2.0320    -0.4440 ca         1 2OL      -0.304000
     17 C17          1.3740     3.3550    -0.3220 ca         1 2OL       0.171900
     18 N18          2.5300     3.7410     0.1890 nb         1 2OL      -0.258000
     19 C19          3.3480     2.7600     0.5860 ca         1 2OL       0.421900
     20 N20          3.0580     1.4550     0.5480 nb         1 2OL      -0.320000
     21 N21          4.5540     3.1010     1.0530 nv         1 2OL      -1.071900
     22 C22         -3.2760    -0.9310     0.4330 cg         1 2OL      -0.102000
     23 C23         -4.4100    -0.5490     0.5900 c1         1 2OL      -0.160100
     24 C24         -5.7970    -0.0820     0.7530 c6         1 2OL       0.275100
     25 C25         -5.8460     1.4430     0.6060 c6         1 2OL      -0.080400
     26 C26         -5.4620     1.8940    -0.7980 c6         1 2OL      -0.072400
     27 C27         -6.3350     1.2280    -1.8570 c6         1 2OL      -0.075400
     28 C28         -6.3050    -0.2910    -1.7280 c6         1 2OL      -0.072400
     29 C29         -6.6860    -0.7310    -0.3180 c6         1 2OL      -0.080400
     30 O30         -6.2610    -0.3850     2.0550 oh         1 2OL      -0.650000
     31 H1           7.6910     0.6290    -0.8890 h1         1 2OL       0.030033
     32 H2           7.9250     0.7860     0.8620 h1         1 2OL       0.030033
     33 H3           8.6050    -0.6040    -0.0030 h1         1 2OL       0.030033
     34 H4           6.1670    -1.0510    -1.6480 h1         1 2OL       0.035200
     35 H5           6.9330    -2.3510    -0.7250 h1         1 2OL       0.035200
     36 H6           4.5620    -2.8110    -1.1180 h1         1 2OL       0.061700
     37 H7           4.8870    -2.6790     0.6060 h1         1 2OL       0.061700
     38 H8           4.1840    -0.1550     0.1290 hn         1 2OL       0.534000
     39 H9          -0.1650    -4.2400    -0.2950 ha         1 2OL       0.131000
     40 H10         -2.4840    -3.4360     0.0190 ha         1 2OL       0.118000
     41 H11         -1.1170     0.6080     0.4350 ha         1 2OL       0.127000
     42 H12          0.0530     1.7700    -0.9220 ha         1 2OL       0.150000
     43 H13          0.7140     4.1420    -0.6690 h4         1 2OL       0.025100
     44 H14          4.7950     4.0690     1.1720 hn         1 2OL       0.508500
     45 H15          5.1660     2.4040     1.4370 hn         1 2OL       0.508500
     46 H16         -6.8690     1.7650     0.8270 hc         1 2OL       0.052200
     47 H17         -5.1950     1.9050     1.3520 hc         1 2OL       0.052200
     48 H18         -5.5490     2.9810    -0.8640 hc         1 2OL       0.044200
     49 H19         -4.4100     1.6570    -0.9850 hc         1 2OL       0.044200
     50 H20         -7.3670     1.5780    -1.7430 hc         1 2OL       0.039200
     51 H21         -6.0110     1.5290    -2.8550 hc         1 2OL       0.039200
     52 H22         -6.9900    -0.7460    -2.4460 hc         1 2OL       0.044200
     53 H23         -5.3060    -0.6640    -1.9740 hc         1 2OL       0.044200
     54 H24         -6.6340    -1.8200    -0.2270 hc         1 2OL       0.052200
     55 H25         -7.7210    -0.4390    -0.1100 hc         1 2OL       0.052200
     56 H26         -6.3040    -1.3430     2.1480 ho         1 2OL       0.448000
@<TRIPOS>BOND
     1     1     2 1   
     2     1    31 1   
     3     1    32 1   
     4     1    33 1   
     5     2     3 1   
     6     3     4 1   
     7     3    34 1   
     8     3    35 1   
     9     4     5 1   
    10     4    36 1   
    11     4    37 1   
    12     5     6 1   
    13     5    38 1   
    14     6     7 2   
    15     6    14 1   
    16     7     8 1   
    17     8     9 ar  
    18     8    13 ar  
    19     9    10 ar  
    20     9    39 1   
    21    10    11 ar  
    22    10    40 1   
    23    11    12 ar  
    24    11    22 1   
    25    12    13 ar  
    26    12    41 1   
    27    13    14 1   
    28    14    15 1   
    29    15    16 ar  
    30    15    20 ar  
    31    16    17 ar  
    32    16    42 1   
    33    17    18 ar  
    34    17    43 1   
    35    18    19 ar  
    36    19    20 ar  
    37    19    21 1   
    38    21    44 1   
    39    21    45 1   
    40    22    23 3   
    41    23    24 1   
    42    24    25 1   
    43    24    29 1   
    44    24    30 1   
    45    25    26 1   
    46    25    46 1   
    47    25    47 1   
    48    26    27 1   
    49    26    48 1   
    50    26    49 1   
    51    27    28 1   
    52    27    50 1   
    53    27    51 1   
    54    28    29 1   
    55    28    52 1   
    56    28    53 1   
    57    29    54 1   
    58    29    55 1   
    59    30    56 1   
@<TRIPOS>SUBSTRUCTURE
     1 2OL         1 TEMP              0 ****  ****    0 ROOT
