@<TRIPOS>MOLECULE
2ON
   15    16     1     0     0
SMALL
No Charge or Current Charge


@<TRIPOS>ATOM
      1 C6          -0.3770    -1.4960     0.0180 c          1 2ON       0.508500
      2 N1           0.9320    -1.1150     0.0020 ns         1 2ON      -0.422400
      3 C2           1.3810     0.1840    -0.0020 cc         1 2ON       0.548800
      4 N3           0.5770     1.2510     0.0100 nd         1 2ON      -0.643100
      5 C4          -0.7780     0.9400     0.0270 cd         1 2ON       0.097400
      6 C5          -1.2850    -0.3280     0.0320 cc         1 2ON       0.128500
      7 N9          -1.8490     1.7900     0.0420 na         1 2ON      -0.295500
      8 C8          -2.9880     0.9960     0.0560 cd         1 2ON       0.403400
      9 N7          -2.6620    -0.2980     0.0500 nc         1 2ON      -0.597000
     10 O6          -0.7110    -2.6730     0.0210 o          1 2ON      -0.499000
     11 S2           3.1150     0.4560    -0.0240 sh         1 2ON      -0.249000
     12 HN1          1.6130    -1.8610    -0.0080 hn         1 2ON       0.341500
     13 HS2          2.9610     1.7990    -0.0200 hs         1 2ON       0.245800
     14 HC8         -3.9870     1.4160     0.0690 h5         1 2ON       0.064100
     15 HN9         -1.8250     2.8000     0.0430 hn         1 2ON       0.369000
@<TRIPOS>BOND
     1     1     2 1   
     2     1     6 1   
     3     1    10 2   
     4     2     3 1   
     5     2    12 1   
     6     3     4 2   
     7     3    11 1   
     8     4     5 1   
     9     5     6 2   
    10     5     7 1   
    11     6     9 1   
    12     7     8 1   
    13     7    15 1   
    14     8     9 2   
    15     8    14 1   
    16    11    13 1   
@<TRIPOS>SUBSTRUCTURE
     1 2ON         1 TEMP              0 ****  ****    0 ROOT
