@<TRIPOS>MOLECULE
2ON
   15    16     1     0     0
SMALL
abcg2


@<TRIPOS>ATOM
      1 C6          -0.4270    -1.4830     0.0190 c          1 2ON       0.508500
      2 N1           0.9110    -1.0570     0.0020 ns         1 2ON      -0.422400
      3 C2           1.3310     0.2350    -0.0010 cc         1 2ON       0.548800
      4 N3           0.5410     1.2580     0.0110 nd         1 2ON      -0.643100
      5 C4          -0.7630     0.9160     0.0270 cd         1 2ON       0.097400
      6 C5          -1.3050    -0.3560     0.0330 cc         1 2ON       0.128500
      7 N9          -1.8270     1.7530     0.0410 na         1 2ON      -0.295500
      8 C8          -2.9440     0.9740     0.0550 cd         1 2ON       0.403400
      9 N7          -2.6710    -0.2990     0.0500 nc         1 2ON      -0.597000
     10 O6          -0.7040    -2.6670     0.0210 o          1 2ON      -0.499000
     11 S2           3.0720     0.4410    -0.0220 sh         1 2ON      -0.249000
     12 HN1          1.6020    -1.7980    -0.0090 hn         1 2ON       0.341500
     13 HS2          3.0350     1.7770    -0.0220 hs         1 2ON       0.245800
     14 HC8         -3.9320     1.4060     0.0680 h5         1 2ON       0.064100
     15 HN9         -1.8000     2.7610     0.0430 hn         1 2ON       0.369000
@<TRIPOS>BOND
     1     1     2 1   
     2     1     6 1   
     3     1    10 2   
     4     2     3 1   
     5     2    12 1   
     6     3     4 2   
     7     3    11 1   
     8     4     5 1   
     9     5     6 2   
    10     5     7 1   
    11     6     9 1   
    12     7     8 1   
    13     7    15 1   
    14     8     9 2   
    15     8    14 1   
    16    11    13 1   
@<TRIPOS>SUBSTRUCTURE
     1 2ON         1 TEMP              0 ****  ****    0 ROOT
