@<TRIPOS>MOLECULE
2OO
   44    46     1     0     0
SMALL
No Charge or Current Charge


@<TRIPOS>ATOM
      1 C1           6.1470    -2.0290    -0.2060 c3         1 2OO      -0.111100
      2 C2           4.7030    -2.5520    -0.1390 c3         1 2OO       0.245800
      3 N3           3.7600    -1.4310    -0.1590 nu         1 2OO      -0.901400
      4 C4           2.4050    -1.5290    -0.0870 cc         1 2OO       0.708700
      5 N5           1.7530    -2.6970    -0.1210 nd         1 2OO      -0.666100
      6 C6           0.4090    -2.3140    -0.0660 ca         1 2OO       0.136400
      7 C7          -0.7200    -3.1440    -0.0780 ca         1 2OO      -0.094000
      8 C8          -1.9980    -2.5440    -0.0150 ca         1 2OO      -0.083000
      9 C9          -2.1300    -1.1340     0.0610 ca         1 2OO       0.005000
     10 C10         -0.9800    -0.3150     0.0740 ca         1 2OO      -0.045000
     11 C11          0.2660    -0.9530     0.0050 ca         1 2OO      -0.081200
     12 N12          1.5330    -0.4560     0.0090 na         1 2OO      -0.228100
     13 C13          1.9110     0.8530    -0.2480 ca         1 2OO       0.322500
     14 N14          1.4120     1.4940    -1.3350 nb         1 2OO      -0.281000
     15 C15          1.8140     2.7670    -1.5340 ca         1 2OO       0.213900
     16 N16          2.6670     3.4390    -0.7420 nb         1 2OO      -0.297000
     17 C17          3.1040     2.7270     0.2970 ca         1 2OO       0.440900
     18 N18          2.7770     1.4680     0.5940 nb         1 2OO      -0.366000
     19 N19          3.9650     3.3330     1.1360 nv         1 2OO      -1.058900
     20 C20         -3.4320    -0.5380     0.1270 cg         1 2OO      -0.088000
     21 C21         -4.5320    -0.0240     0.1770 c1         1 2OO      -0.127100
     22 C22         -5.8490     0.6290     0.2000 c3         1 2OO       0.276100
     23 C23         -5.6880     2.1520     0.3950 c3         1 2OO      -0.116600
     24 C24         -6.6280     0.3090    -1.0950 c3         1 2OO      -0.116600
     25 O25         -6.5950     0.1180     1.3020 oh         1 2OO      -0.648000
     26 H1           6.3700    -1.3870     0.6550 hc         1 2OO       0.041700
     27 H2           6.8520    -2.8690    -0.1970 hc         1 2OO       0.041700
     28 H3           6.3100    -1.4550    -1.1250 hc         1 2OO       0.041700
     29 H4           4.5200    -3.2160    -0.9950 h1         1 2OO       0.054700
     30 H5           4.5730    -3.1410     0.7800 h1         1 2OO       0.054700
     31 H6           4.1070    -0.4980     0.0510 hn         1 2OO       0.533000
     32 H7          -0.6120    -4.2240    -0.1360 ha         1 2OO       0.130000
     33 H8          -2.8860    -3.1730    -0.0250 ha         1 2OO       0.121000
     34 H9          -1.0580     0.7680     0.1380 ha         1 2OO       0.148000
     35 H10          1.4170     3.2880    -2.4040 h5         1 2OO       0.056100
     36 H11          4.0410     4.3460     1.0860 hn         1 2OO       0.512500
     37 H12          4.1080     2.9180     2.0530 hn         1 2OO       0.512500
     38 H13         -5.1130     2.5910    -0.4300 hc         1 2OO       0.045200
     39 H14         -6.6650     2.6500     0.4250 hc         1 2OO       0.045200
     40 H15         -5.1630     2.3760     1.3320 hc         1 2OO       0.045200
     41 H16         -6.7680    -0.7730    -1.2130 hc         1 2OO       0.045200
     42 H17         -7.6180     0.7810    -1.0850 hc         1 2OO       0.045200
     43 H18         -6.0880     0.6790    -1.9750 hc         1 2OO       0.045200
     44 H19         -7.4630     0.5730     1.2860 ho         1 2OO       0.441000
@<TRIPOS>BOND
     1     1     2 1   
     2     1    26 1   
     3     1    27 1   
     4     1    28 1   
     5     2     3 1   
     6     2    29 1   
     7     2    30 1   
     8     3     4 1   
     9     3    31 1   
    10     4     5 2   
    11     4    12 1   
    12     5     6 1   
    13     6     7 ar  
    14     6    11 ar  
    15     7     8 ar  
    16     7    32 1   
    17     8     9 ar  
    18     8    33 1   
    19     9    10 ar  
    20     9    20 1   
    21    10    11 ar  
    22    10    34 1   
    23    11    12 1   
    24    12    13 1   
    25    13    14 ar  
    26    13    18 ar  
    27    14    15 ar  
    28    15    16 ar  
    29    15    35 1   
    30    16    17 ar  
    31    17    18 ar  
    32    17    19 1   
    33    19    36 1   
    34    19    37 1   
    35    20    21 3   
    36    21    22 1   
    37    22    23 1   
    38    22    24 1   
    39    22    25 1   
    40    23    38 1   
    41    23    39 1   
    42    23    40 1   
    43    24    41 1   
    44    24    42 1   
    45    24    43 1   
    46    25    44 1   
@<TRIPOS>SUBSTRUCTURE
     1 2OO         1 TEMP              0 ****  ****    0 ROOT
