@<TRIPOS>MOLECULE
2OO
   44    46     1     0     0
SMALL
abcg2


@<TRIPOS>ATOM
      1 C1           6.0110    -2.0870     0.0380 c3         1 2OO      -0.111100
      2 C2           4.5520    -2.4880     0.1360 c3         1 2OO       0.245800
      3 N3           3.7080    -1.3170     0.0100 nu         1 2OO      -0.901400
      4 C4           2.3830    -1.4120     0.0110 cc         1 2OO       0.708700
      5 N5           1.7260    -2.5400     0.0430 nd         1 2OO      -0.666100
      6 C6           0.4000    -2.2030     0.0220 ca         1 2OO       0.136400
      7 C7          -0.7070    -3.0430     0.0420 ca         1 2OO      -0.094000
      8 C8          -1.9690    -2.4760     0.0230 ca         1 2OO      -0.083000
      9 C9          -2.1380    -1.0840    -0.0120 ca         1 2OO       0.005000
     10 C10         -1.0270    -0.2300    -0.0380 ca         1 2OO      -0.045000
     11 C11          0.2250    -0.8100    -0.0240 ca         1 2OO      -0.081200
     12 N12          1.5310    -0.2930    -0.0330 na         1 2OO      -0.228100
     13 C13          1.8930     1.0390    -0.0710 ca         1 2OO       0.322500
     14 N14          0.9080     1.9240    -0.1380 nb         1 2OO      -0.281000
     15 C15          1.3170     3.1850    -0.1760 ca         1 2OO       0.213900
     16 N16          2.5590     3.6090    -0.1510 nb         1 2OO      -0.297000
     17 C17          3.4790     2.6320    -0.0780 ca         1 2OO       0.440900
     18 N18          3.1790     1.3280    -0.0370 nb         1 2OO      -0.366000
     19 N19          4.7570     2.9800    -0.0450 nv         1 2OO      -1.058900
     20 C20         -3.4500    -0.5270    -0.0100 cg         1 2OO      -0.088000
     21 C21         -4.5610    -0.0590     0.0030 c1         1 2OO      -0.127100
     22 C22         -5.9120     0.5160     0.0080 c3         1 2OO       0.276100
     23 C23         -5.8230     2.0290     0.2250 c3         1 2OO      -0.116600
     24 C24         -6.6110     0.2080    -1.3190 c3         1 2OO      -0.116600
     25 O25         -6.5930    -0.1070     1.0870 oh         1 2OO      -0.648000
     26 H1           6.2810    -1.3720     0.8170 hc         1 2OO       0.041700
     27 H2           6.6450    -2.9630     0.1590 hc         1 2OO       0.041700
     28 H3           6.2360    -1.6400    -0.9300 hc         1 2OO       0.041700
     29 H4           4.3070    -3.2040    -0.6520 h1         1 2OO       0.054700
     30 H5           4.3600    -2.9890     1.0890 h1         1 2OO       0.054700
     31 H6           4.1050    -0.3880     0.0350 hn         1 2OO       0.533000
     32 H7          -0.5810    -4.1180     0.0730 ha         1 2OO       0.130000
     33 H8          -2.8430    -3.1130     0.0390 ha         1 2OO       0.121000
     34 H9          -1.1590     0.8390    -0.0650 ha         1 2OO       0.148000
     35 H10          0.5410     3.9410    -0.2340 h5         1 2OO       0.056100
     36 H11          5.0200     3.9500    -0.0680 hn         1 2OO       0.512500
     37 H12          5.4810     2.2850     0.0210 hn         1 2OO       0.512500
     38 H13         -5.2540     2.5070    -0.5710 hc         1 2OO       0.045200
     39 H14         -6.8240     2.4640     0.2290 hc         1 2OO       0.045200
     40 H15         -5.3430     2.2590     1.1770 hc         1 2OO       0.045200
     41 H16         -6.6650    -0.8660    -1.4930 hc         1 2OO       0.045200
     42 H17         -7.6270     0.6080    -1.3050 hc         1 2OO       0.045200
     43 H18         -6.0840     0.6660    -2.1550 hc         1 2OO       0.045200
     44 H19         -7.4980     0.2230     1.0890 ho         1 2OO       0.441000
@<TRIPOS>BOND
     1     1     2 1   
     2     1    26 1   
     3     1    27 1   
     4     1    28 1   
     5     2     3 1   
     6     2    29 1   
     7     2    30 1   
     8     3     4 1   
     9     3    31 1   
    10     4     5 2   
    11     4    12 1   
    12     5     6 1   
    13     6     7 ar  
    14     6    11 ar  
    15     7     8 ar  
    16     7    32 1   
    17     8     9 ar  
    18     8    33 1   
    19     9    10 ar  
    20     9    20 1   
    21    10    11 ar  
    22    10    34 1   
    23    11    12 1   
    24    12    13 1   
    25    13    14 ar  
    26    13    18 ar  
    27    14    15 ar  
    28    15    16 ar  
    29    15    35 1   
    30    16    17 ar  
    31    17    18 ar  
    32    17    19 1   
    33    19    36 1   
    34    19    37 1   
    35    20    21 3   
    36    21    22 1   
    37    22    23 1   
    38    22    24 1   
    39    22    25 1   
    40    23    38 1   
    41    23    39 1   
    42    23    40 1   
    43    24    41 1   
    44    24    42 1   
    45    24    43 1   
    46    25    44 1   
@<TRIPOS>SUBSTRUCTURE
     1 2OO         1 TEMP              0 ****  ****    0 ROOT
