@<TRIPOS>MOLECULE
2OP
   11    10     1     0     0
SMALL
No Charge or Current Charge


@<TRIPOS>ATOM
      1 C           -0.8560    -0.1260     0.1160 c          1 2OP       0.728000
      2 O           -1.1680    -0.3730    -1.0430 o          1 2OP      -0.725000
      3 CB           1.2800     1.1920    -0.5880 c3         1 2OP      -0.099100
      4 OHN          1.4980    -0.9260     0.5900 oh         1 2OP      -0.633000
      5 CA           0.6460     0.2380     0.4520 c3         1 2OP       0.019300
      6 OXT         -1.6650    -0.1340     1.0360 o          1 2OP      -0.725000
      7 HB1          2.2850     1.4960    -0.2740 hc         1 2OP       0.016700
      8 HB2          1.3580     0.7120    -1.5710 hc         1 2OP       0.016700
      9 HB3          0.6710     2.0980    -0.6950 hc         1 2OP       0.016700
     10 HHN          2.4010    -0.6020     0.7960 ho         1 2OP       0.383000
     11 HA           0.6330     0.7760     1.4090 h1         1 2OP       0.002700
@<TRIPOS>BOND
     1     1     2 1   
     2     1     5 1   
     3     1     6 1   
     4     3     5 1   
     5     3     7 1   
     6     3     8 1   
     7     3     9 1   
     8     4     5 1   
     9     4    10 1   
    10     5    11 1   
@<TRIPOS>SUBSTRUCTURE
     1 2OP         1 TEMP              0 ****  ****    0 ROOT
