@<TRIPOS>MOLECULE
2OP
   11    10     1     0     0
SMALL
bcc


@<TRIPOS>ATOM
      1 C           -0.7720    -0.1800     0.0600 c          1 2OP       0.938600
      2 O           -1.0280    -1.3090    -0.3900 o          1 2OP      -0.830300
      3 CB           1.1930     1.3320    -0.4140 c3         1 2OP      -0.099100
      4 OHN          1.5010    -0.9940     0.2170 oh         1 2OP      -0.570800
      5 CA           0.6930     0.1490     0.4100 c3         1 2OP      -0.003900
      6 OXT         -1.5800     0.7490     0.2660 o          1 2OP      -0.830300
      7 HB1          2.2240     1.5850    -0.1530 hc         1 2OP       0.016700
      8 HB2          1.1640     1.1100    -1.4830 hc         1 2OP       0.016700
      9 HB3          0.5810     2.2150    -0.2350 hc         1 2OP       0.016700
     10 HHN          2.3960    -0.7590     0.4800 ho         1 2OP       0.344000
     11 HA           0.7100     0.4520     1.4690 h1         1 2OP       0.002700
@<TRIPOS>BOND
     1     1     2 1   
     2     1     5 1   
     3     1     6 1   
     4     3     5 1   
     5     3     7 1   
     6     3     8 1   
     7     3     9 1   
     8     4     5 1   
     9     4    10 1   
    10     5    11 1   
@<TRIPOS>SUBSTRUCTURE
     1 2OP         1 TEMP              0 ****  ****    0 ROOT
