@<TRIPOS>MOLECULE
2OQ
   46    49     1     0     0
SMALL
No Charge or Current Charge


@<TRIPOS>ATOM
      1 C1         -18.6330    -4.2200    13.6530 c3         1 2OQ      -0.104400
      2 C2         -18.8410    -2.7410    13.8050 cc         1 2OQ       0.470800
      3 N3         -18.0770    -1.7900    13.2230 nd         1 2OQ      -0.575100
      4 C4         -18.6250    -0.5860    13.6810 ca         1 2OQ       0.082400
      5 C5         -18.2040     0.7190    13.3860 ca         1 2OQ      -0.060000
      6 C6         -18.9060     1.7990    13.9680 ca         1 2OQ      -0.102000
      7 C7         -20.0090     1.5640    14.8270 ca         1 2OQ       0.034000
      8 C8         -20.4170     0.2420    15.1090 ca         1 2OQ      -0.066000
      9 C9         -19.6900    -0.7950    14.5120 ca         1 2OQ      -0.050200
     10 N10        -19.8330    -2.1440    14.5770 na         1 2OQ      -0.213100
     11 C11        -20.6900    -2.8490    15.4060 ca         1 2OQ       0.303500
     12 N12        -20.4240    -2.9150    16.7340 nb         1 2OQ      -0.271000
     13 C13        -21.2910    -3.6130    17.4970 ca         1 2OQ       0.200900
     14 N14        -22.3880    -4.2420    17.0390 nb         1 2OQ      -0.288000
     15 C15        -22.5660    -4.1190    15.7220 ca         1 2OQ       0.422900
     16 N16        -21.7760    -3.4560    14.8710 nb         1 2OQ      -0.313000
     17 N17        -23.6480    -4.7280    15.1930 nv         1 2OQ      -1.057900
     18 C18        -20.7130     2.6680    15.4100 cg         1 2OQ      -0.099000
     19 C19        -21.3140     3.5970    15.9120 c1         1 2OQ      -0.109100
     20 C20        -22.0570     4.7090    16.5430 c6         1 2OQ       0.271100
     21 C21        -23.5810     4.3930    16.5610 c6         1 2OQ      -0.098400
     22 C22        -24.4050     5.4700    17.3200 c6         1 2OQ      -0.077900
     23 C23        -23.8680     5.6760    18.7570 c6         1 2OQ      -0.079400
     24 C24        -22.3590     6.0250    18.7500 c6         1 2OQ      -0.077900
     25 C25        -21.5370     4.9480    17.9910 c6         1 2OQ      -0.098400
     26 O26        -21.8120     5.8670    15.7440 oh         1 2OQ      -0.657000
     27 H1         -17.7600    -4.4310    13.0250 hc         1 2OQ       0.064367
     28 H2         -18.4700    -4.6900    14.6290 hc         1 2OQ       0.064367
     29 H3         -19.5080    -4.6870    13.1870 hc         1 2OQ       0.064367
     30 H4         -17.3570     0.8920    12.7280 ha         1 2OQ       0.133000
     31 H5         -18.5930     2.8180    13.7520 ha         1 2OQ       0.126000
     32 H6         -21.2610     0.0370    15.7640 ha         1 2OQ       0.143000
     33 H7         -21.0850    -3.6730    18.5640 h5         1 2OQ       0.057100
     34 H8         -23.6810    -4.8530    14.1840 hn         1 2OQ       0.515000
     35 H9         -24.1290    -5.4300    15.7510 hn         1 2OQ       0.515000
     36 H10        -23.9600     4.2960    15.5340 hc         1 2OQ       0.057700
     37 H11        -23.7480     3.4180    17.0400 hc         1 2OQ       0.057700
     38 H12        -24.3800     6.4220    16.7720 hc         1 2OQ       0.041700
     39 H13        -25.4600     5.1680    17.3600 hc         1 2OQ       0.041700
     40 H14        -24.4330     6.4750    19.2560 hc         1 2OQ       0.042700
     41 H15        -24.0330     4.7630    19.3470 hc         1 2OQ       0.042700
     42 H16        -21.9950     6.1070    19.7830 hc         1 2OQ       0.041700
     43 H17        -22.2070     7.0120    18.2920 hc         1 2OQ       0.041700
     44 H18        -21.5810     4.0060    18.5560 hc         1 2OQ       0.057700
     45 H19        -20.4780     5.2400    17.9700 hc         1 2OQ       0.057700
     46 H20        -22.3100     6.5940    16.1730 ho         1 2OQ       0.444000
@<TRIPOS>BOND
     1     1     2 1   
     2     1    27 1   
     3     1    28 1   
     4     1    29 1   
     5     2     3 2   
     6     2    10 1   
     7     3     4 1   
     8     4     5 ar  
     9     4     9 ar  
    10     5     6 ar  
    11     5    30 1   
    12     6     7 ar  
    13     6    31 1   
    14     7     8 ar  
    15     7    18 1   
    16     8     9 ar  
    17     8    32 1   
    18     9    10 1   
    19    10    11 1   
    20    11    12 ar  
    21    11    16 ar  
    22    12    13 ar  
    23    13    14 ar  
    24    13    33 1   
    25    14    15 ar  
    26    15    16 ar  
    27    15    17 1   
    28    17    34 1   
    29    17    35 1   
    30    18    19 3   
    31    19    20 1   
    32    20    21 1   
    33    20    25 1   
    34    20    26 1   
    35    21    22 1   
    36    21    36 1   
    37    21    37 1   
    38    22    23 1   
    39    22    38 1   
    40    22    39 1   
    41    23    24 1   
    42    23    40 1   
    43    23    41 1   
    44    24    25 1   
    45    24    42 1   
    46    24    43 1   
    47    25    44 1   
    48    25    45 1   
    49    26    46 1   
@<TRIPOS>SUBSTRUCTURE
     1 2OQ         1 TEMP              0 ****  ****    0 ROOT
