@<TRIPOS>MOLECULE
2OQ
   46    49     1     0     0
SMALL
abcg2


@<TRIPOS>ATOM
      1 C1         -18.7900    -4.1350    13.5260 c3         1 2OQ      -0.104400
      2 C2         -19.0220    -2.6840    13.7400 cc         1 2OQ       0.470800
      3 N3         -18.2990    -1.7490    13.1860 nd         1 2OQ      -0.575100
      4 C4         -18.7810    -0.5360    13.6570 ca         1 2OQ       0.082400
      5 C5         -18.3670     0.7570    13.3500 ca         1 2OQ      -0.060000
      6 C6         -19.0260     1.8140    13.9530 ca         1 2OQ      -0.102000
      7 C7         -20.0950     1.5960    14.8500 ca         1 2OQ       0.034000
      8 C8         -20.5140     0.2950    15.1620 ca         1 2OQ      -0.066000
      9 C9         -19.8370    -0.7530    14.5600 ca         1 2OQ      -0.050200
     10 N10        -19.9940    -2.1470    14.6000 na         1 2OQ      -0.213100
     11 C11        -20.9320    -2.8490    15.3680 ca         1 2OQ       0.303500
     12 N12        -21.3630    -2.2460    16.4800 nb         1 2OQ      -0.271000
     13 C13        -22.2580    -2.9600    17.1650 ca         1 2OQ       0.200900
     14 N14        -22.7080    -4.1620    16.8570 nb         1 2OQ      -0.288000
     15 C15        -22.1980    -4.6770    15.7140 ca         1 2OQ       0.422900
     16 N16        -21.3140    -4.0320    14.9270 nb         1 2OQ      -0.313000
     17 N17        -22.6010    -5.8900    15.3360 nv         1 2OQ      -1.057900
     18 C18        -20.7530     2.7090    15.4520 cg         1 2OQ      -0.099000
     19 C19        -21.3010     3.6550    15.9600 c1         1 2OQ      -0.109100
     20 C20        -21.9810     4.7740    16.6130 c6         1 2OQ       0.271100
     21 C21        -23.5060     4.5340    16.6140 c6         1 2OQ      -0.098400
     22 C22        -24.2640     5.6110    17.3920 c6         1 2OQ      -0.077900
     23 C23        -23.7360     5.7440    18.8220 c6         1 2OQ      -0.079400
     24 C24        -22.2310     6.0110    18.8300 c6         1 2OQ      -0.077900
     25 C25        -21.4670     4.9320    18.0610 c6         1 2OQ      -0.098400
     26 O26        -21.6510     5.9430    15.8300 oh         1 2OQ      -0.657000
     27 H1         -17.8530    -4.2460    12.9830 hc         1 2OQ       0.064367
     28 H2         -18.7300    -4.6700    14.4740 hc         1 2OQ       0.064367
     29 H3         -19.5990    -4.5850    12.9520 hc         1 2OQ       0.064367
     30 H4         -17.5540     0.9260    12.6560 ha         1 2OQ       0.133000
     31 H5         -18.7280     2.8320    13.7380 ha         1 2OQ       0.126000
     32 H6         -21.3240     0.1280    15.8530 ha         1 2OQ       0.143000
     33 H7         -22.6470    -2.5060    18.0720 h5         1 2OQ       0.057100
     34 H8         -22.2430    -6.3030    14.4910 hn         1 2OQ       0.515000
     35 H9         -23.2690    -6.3940    15.8940 hn         1 2OQ       0.515000
     36 H10        -23.8470     4.4820    15.5790 hc         1 2OQ       0.057700
     37 H11        -23.6920     3.5580    17.0710 hc         1 2OQ       0.057700
     38 H12        -24.1770     6.5750    16.8800 hc         1 2OQ       0.041700
     39 H13        -25.3280     5.3650    17.3990 hc         1 2OQ       0.041700
     40 H14        -24.2650     6.5430    19.3470 hc         1 2OQ       0.042700
     41 H15        -23.9380     4.8150    19.3670 hc         1 2OQ       0.042700
     42 H16        -21.8540     6.0540    19.8540 hc         1 2OQ       0.041700
     43 H17        -22.0310     6.9970    18.3930 hc         1 2OQ       0.041700
     44 H18        -21.5880     3.9710    18.5670 hc         1 2OQ       0.057700
     45 H19        -20.3990     5.1530    18.0260 hc         1 2OQ       0.057700
     46 H20        -22.0370     6.7160    16.2610 ho         1 2OQ       0.444000
@<TRIPOS>BOND
     1     1     2 1   
     2     1    27 1   
     3     1    28 1   
     4     1    29 1   
     5     2     3 2   
     6     2    10 1   
     7     3     4 1   
     8     4     5 ar  
     9     4     9 ar  
    10     5     6 ar  
    11     5    30 1   
    12     6     7 ar  
    13     6    31 1   
    14     7     8 ar  
    15     7    18 1   
    16     8     9 ar  
    17     8    32 1   
    18     9    10 1   
    19    10    11 1   
    20    11    12 ar  
    21    11    16 ar  
    22    12    13 ar  
    23    13    14 ar  
    24    13    33 1   
    25    14    15 ar  
    26    15    16 ar  
    27    15    17 1   
    28    17    34 1   
    29    17    35 1   
    30    18    19 3   
    31    19    20 1   
    32    20    21 1   
    33    20    25 1   
    34    20    26 1   
    35    21    22 1   
    36    21    36 1   
    37    21    37 1   
    38    22    23 1   
    39    22    38 1   
    40    22    39 1   
    41    23    24 1   
    42    23    40 1   
    43    23    41 1   
    44    24    25 1   
    45    24    42 1   
    46    24    43 1   
    47    25    44 1   
    48    25    45 1   
    49    26    46 1   
@<TRIPOS>SUBSTRUCTURE
     1 2OQ         1 TEMP              0 ****  ****    0 ROOT
