@<TRIPOS>MOLECULE
2OR
   28    27     1     0     0
SMALL
bcc


@<TRIPOS>ATOM
      1 O           39.1800    -2.3070     5.5670 o          1 2OR      -0.823300
      2 C           38.8590    -3.3010     6.2430 c          1 2OR       0.936600
      3 OXT         39.5340    -4.3360     6.4180 o          1 2OR      -0.823300
      4 CA          37.5000    -3.2440     6.9910 c3         1 2OR      -0.021500
      5 N           36.7720    -2.0290     6.6430 n8         1 2OR      -0.919800
      6 CB          36.5470    -4.4040     6.6400 c3         1 2OR       0.176100
      7 OB          36.1500    -4.2630     5.2990 oh         1 2OR      -0.607800
      8 CG          37.0420    -5.8330     6.8420 c3         1 2OR       0.137100
      9 OG          35.9410    -6.7130     6.6260 oh         1 2OR      -0.652800
     10 CD          37.5650    -6.0540     8.2550 c3         1 2OR       0.017300
     11 NE          38.0670    -7.3980     8.4800 nu         1 2OR      -0.379100
     12 CZ          37.3620    -8.4250     8.9420 cz         1 2OR       0.504300
     13 NH2         37.9950    -9.4920     9.4120 nv         1 2OR      -0.517200
     14 NH1         36.0340    -8.3680     8.9650 nv         1 2OR      -0.517200
     15 H2          37.7280    -3.2910     8.0650 h1         1 2OR       0.002700
     16 HN          36.2260    -1.6960     7.4260 hn         1 2OR       0.355800
     17 H4          37.4360    -1.3120     6.3890 hn         1 2OR       0.355800
     18 H6          35.6750    -4.2920     7.3110 h1         1 2OR      -0.002300
     19 H7          36.0410    -3.3010     5.2060 ho         1 2OR       0.452000
     20 H8          37.8430    -6.0470     6.1320 h1         1 2OR       0.106700
     21 H9          36.1190    -7.2620     5.8590 ho         1 2OR       0.419000
     22 H10         38.3960    -5.3800     8.4390 h1         1 2OR       0.096700
     23 H11         36.7900    -5.8310     8.9940 h1         1 2OR       0.096700
     24 H12         39.0620    -7.5330     8.3850 hn         1 2OR       0.319700
     25 H13         37.4980   -10.3410     9.6270 hn         1 2OR       0.321700
     26 H14         38.9890    -9.4870     9.5650 hn         1 2OR       0.321700
     27 H15         35.5080    -9.1450     9.3320 hn         1 2OR       0.321700
     28 H16         35.5780    -7.7850     8.2720 hn         1 2OR       0.321700
@<TRIPOS>BOND
     1     1     2 1   
     2     2     3 1   
     3     2     4 1   
     4     4     5 1   
     5     4     6 1   
     6     4    15 1   
     7     5    16 1   
     8     5    17 1   
     9     6     7 1   
    10     6     8 1   
    11     6    18 1   
    12     7    19 1   
    13     8     9 1   
    14     8    10 1   
    15     8    20 1   
    16     9    21 1   
    17    10    11 1   
    18    10    22 1   
    19    10    23 1   
    20    11    12 2   
    21    11    24 1   
    22    12    13 1   
    23    12    14 1   
    24    13    25 1   
    25    13    26 1   
    26    14    27 1   
    27    14    28 1   
@<TRIPOS>SUBSTRUCTURE
     1 2OR         1 TEMP              0 ****  ****    0 ROOT
