@<TRIPOS>MOLECULE
2OR
   28    27     1     0     0
SMALL
No Charge or Current Charge


@<TRIPOS>ATOM
      1 O           39.1460    -3.9970     5.2580 o          1 2OR      -0.718000
      2 C           38.9420    -3.7490     6.4390 c          1 2OR       0.726000
      3 OXT         39.8180    -3.7970     7.2910 o          1 2OR      -0.718000
      4 CA          37.5200    -3.1950     6.8700 c3         1 2OR      -0.021500
      5 N           37.0260    -1.9510     6.1310 n8         1 2OR      -1.030200
      6 CB          36.4190    -4.2960     6.8080 c3         1 2OR       0.199300
      7 OB          35.8280    -4.1220     5.5250 oh         1 2OR      -0.670000
      8 CG          36.8520    -5.7820     7.0370 c3         1 2OR       0.160300
      9 OG          35.7160    -6.6230     6.7500 oh         1 2OR      -0.715000
     10 CD          37.3500    -6.0460     8.4900 c3         1 2OR       0.046600
     11 NE          38.0310    -7.3630     8.6530 nu         1 2OR      -0.864000
     12 CZ          37.4960    -8.5440     8.8800 cz         1 2OR       0.909600
     13 NH2         38.2490    -9.5130     9.3070 nv         1 2OR      -0.617800
     14 NH1         36.2560    -8.7680     8.5710 nv         1 2OR      -0.617800
     15 H2          37.6230    -2.8970     7.9220 h1         1 2OR       0.002700
     16 HN          36.3160    -1.4690     6.7030 hn         1 2OR       0.411000
     17 H4          37.7870    -1.2570     6.0930 hn         1 2OR       0.411000
     18 H6          35.6670    -4.0450     7.5690 h1         1 2OR      -0.002300
     19 H7          36.1670    -3.1980     5.3400 ho         1 2OR       0.491000
     20 H8          37.6730    -6.0150     6.3430 h1         1 2OR       0.106700
     21 H9          35.2380    -6.1430     6.0310 ho         1 2OR       0.458000
     22 H10         38.0490    -5.2460     8.7720 h1         1 2OR       0.096700
     23 H11         36.4950    -5.9620     9.1780 h1         1 2OR       0.096700
     24 H12         39.0440    -7.3320     8.7010 hn         1 2OR       0.370000
     25 H13         37.8760   -10.4270     9.5040 hn         1 2OR       0.372000
     26 H14         39.2030    -9.3520     9.5850 hn         1 2OR       0.372000
     27 H15         35.8630    -9.6930     8.5900 hn         1 2OR       0.372000
     28 H16         35.7850    -8.0900     7.9860 hn         1 2OR       0.372000
@<TRIPOS>BOND
     1     1     2 1   
     2     2     3 1   
     3     2     4 1   
     4     4     5 1   
     5     4     6 1   
     6     4    15 1   
     7     5    16 1   
     8     5    17 1   
     9     6     7 1   
    10     6     8 1   
    11     6    18 1   
    12     7    19 1   
    13     8     9 1   
    14     8    10 1   
    15     8    20 1   
    16     9    21 1   
    17    10    11 1   
    18    10    22 1   
    19    10    23 1   
    20    11    12 2   
    21    11    24 1   
    22    12    13 1   
    23    12    14 1   
    24    13    25 1   
    25    13    26 1   
    26    14    27 1   
    27    14    28 1   
@<TRIPOS>SUBSTRUCTURE
     1 2OR         1 TEMP              0 ****  ****    0 ROOT
