@<TRIPOS>MOLECULE
2OW
   53    55     1     0     0
SMALL
No Charge or Current Charge


@<TRIPOS>ATOM
      1 C10          1.3110    -2.0500    -0.7340 ca         1 2OW      -0.102300
      2 C13         -0.9380    -2.5680     0.8930 ca         1 2OW      -0.087000
      3 C20         -6.2390     1.4760    -0.9620 ca         1 2OW       0.290900
      4 C22         -8.2730     1.3520     0.1410 ca         1 2OW       0.325300
      5 C24         -7.7860     0.3500     1.0000 ca         1 2OW      -0.134000
      6 C26          0.1060    -1.3410    -0.9290 ca         1 2OW       0.122000
      7 C28          3.3050     0.2020    -0.3350 c6         1 2OW       0.145300
      8 C01          7.4700     3.2200     2.0320 c3         1 2OW       0.170900
      9 O02          6.4690     2.3960     1.4080 os         1 2OW      -0.457100
     10 O04          8.0540     1.2580     0.2050 o          1 2OW      -0.546000
     11 N05          5.8140     0.7150    -0.0280 n          1 2OW      -0.409800
     12 C06          6.0950    -0.5070    -0.8410 c6         1 2OW       0.110000
     13 C07          4.8940    -1.0540    -1.6590 c6         1 2OW       0.145300
     14 N08          3.6530    -1.1490    -0.8500 n3         1 2OW      -0.724600
     15 C09          2.5420    -1.7860    -1.5990 c3         1 2OW       0.219100
     16 C11          1.3780    -3.0180     0.2850 ca         1 2OW      -0.085000
     17 C12          0.2600    -3.2750     1.0920 ca         1 2OW      -0.110000
     18 C14         -1.0270    -1.5890    -0.1230 ca         1 2OW      -0.055000
     19 N15         -2.2080    -0.8310    -0.3800 ns         1 2OW      -0.166000
     20 C16         -3.4660    -0.8230     0.2070 c          1 2OW       0.669100
     21 O17         -3.7980    -1.5450     1.1400 o          1 2OW      -0.604100
     22 N18         -4.3040     0.1060    -0.3960 ns         1 2OW      -0.155000
     23 C19         -5.6600     0.4750    -0.1510 ca         1 2OW      -0.063000
     24 N21         -7.5130     1.9110    -0.8260 nb         1 2OW      -0.651000
     25 C25         -6.4620    -0.1010     0.8590 ca         1 2OW      -0.097000
     26 F27          0.0290    -0.4000    -1.9010 f          1 2OW      -0.190000
     27 C29          4.4310     0.8200     0.5380 c6         1 2OW       0.110000
     28 H1          -1.7790    -2.7960     1.5400 ha         1 2OW       0.139000
     29 H2          -5.6570     1.9500    -1.7530 h4         1 2OW       0.010100
     30 H3          -8.4290    -0.0710     1.7690 ha         1 2OW       0.124000
     31 H4           3.1030     0.8820    -1.1760 h1         1 2OW       0.044450
     32 H5           2.3870     0.1670     0.2700 h1         1 2OW       0.044450
     33 H6           7.0010     3.9320     2.7230 h1         1 2OW       0.048033
     34 H7           8.1800     2.6080     2.6050 h1         1 2OW       0.048033
     35 H8           8.0300     3.7930     1.2820 h1         1 2OW       0.048033
     36 H9           6.9230    -0.3050    -1.5360 h1         1 2OW       0.063450
     37 H10          6.4360    -1.2970    -0.1580 h1         1 2OW       0.063450
     38 H11          4.7300    -0.3920    -2.5230 h1         1 2OW       0.044450
     39 H12          5.1690    -2.0400    -2.0600 h1         1 2OW       0.044450
     40 H14          2.8770    -2.7530    -1.9990 h1         1 2OW       0.050200
     41 H15          2.2690    -1.1700    -2.4660 h1         1 2OW       0.050200
     42 H16          2.3030    -3.5680     0.4510 ha         1 2OW       0.138000
     43 H17          0.3210    -4.0250     1.8780 ha         1 2OW       0.123000
     44 H18         -2.1020    -0.1710    -1.1400 hn         1 2OW       0.158000
     45 H19         -3.8730     0.6200    -1.1540 hn         1 2OW       0.151000
     46 H20        -10.1340     2.0670    -0.7210 hc         1 2OW       0.049367
     47 H21        -10.3390     1.1460     0.7740 hc         1 2OW       0.049367
     48 H22         -9.7180     2.8040     0.8370 hc         1 2OW       0.049367
     49 H23         -6.0920    -0.8750     1.5260 ha         1 2OW       0.154000
     50 H24          4.1780     1.8740     0.7160 h1         1 2OW       0.063450
     51 H25          4.4250     0.3180     1.5150 h1         1 2OW       0.063450
     52 C23         -9.6930     1.8700     0.2630 c3         1 2OW      -0.137400
     53 C03          6.8860     1.4470     0.5130 c          1 2OW       0.646100
@<TRIPOS>BOND
     1     1     6 ar  
     2     1    15 1   
     3     1    16 ar  
     4     2    17 ar  
     5     2    18 ar  
     6     2    28 1   
     7     3    23 ar  
     8     3    24 ar  
     9     3    29 1   
    10     4     5 ar  
    11     4    24 ar  
    12     4    52 1   
    13     5    25 ar  
    14     5    30 1   
    15     6    18 ar  
    16     6    26 1   
    17     7    14 1   
    18     7    27 1   
    19     7    31 1   
    20     7    32 1   
    21     8     9 1   
    22     8    33 1   
    23     8    34 1   
    24     8    35 1   
    25     9    53 1   
    26    10    53 2   
    27    11    12 1   
    28    11    27 1   
    29    11    53 1   
    30    12    13 1   
    31    12    36 1   
    32    12    37 1   
    33    13    14 1   
    34    13    38 1   
    35    13    39 1   
    36    14    15 1   
    37    15    40 1   
    38    15    41 1   
    39    16    17 ar  
    40    16    42 1   
    41    17    43 1   
    42    18    19 1   
    43    19    20 1   
    44    19    44 1   
    45    20    21 2   
    46    20    22 1   
    47    22    23 1   
    48    22    45 1   
    49    23    25 ar  
    50    25    49 1   
    51    27    50 1   
    52    27    51 1   
    53    46    52 1   
    54    47    52 1   
    55    48    52 1   
@<TRIPOS>SUBSTRUCTURE
     1 2OW         1 TEMP              0 ****  ****    0 ROOT
