@<TRIPOS>MOLECULE
2OW
   53    55     1     0     0
SMALL
bcc


@<TRIPOS>ATOM
      1 C10          1.0940    -0.7200    -0.1830 ca         1 2OW      -0.102300
      2 C13         -1.0710    -0.9880     1.5860 ca         1 2OW      -0.105000
      3 C20         -6.8420     1.4480    -0.7790 ca         1 2OW       0.356200
      4 C22         -8.7770     0.2740    -0.4420 ca         1 2OW       0.390600
      5 C24         -8.0530    -0.7780     0.1030 ca         1 2OW      -0.218300
      6 C26         -0.1390    -0.1500    -0.4420 ca         1 2OW       0.086900
      7 C28          3.8650     0.4380     0.2720 c6         1 2OW       0.145300
      8 C01          8.8460     2.0790     0.9300 c3         1 2OW       0.147700
      9 O02          7.5910     1.4080     0.9180 os         1 2OW      -0.433900
     10 O04          8.3320     0.0740    -0.7260 o          1 2OW      -0.595000
     11 N05          6.2230    -0.1490     0.0930 n          1 2OW      -0.476800
     12 C06          5.8880    -1.2730    -0.7580 c6         1 2OW       0.110000
     13 C07          4.5770    -1.0170    -1.4770 c6         1 2OW       0.145300
     14 N08          3.5240    -0.7270    -0.5230 n3         1 2OW      -0.724600
     15 C09          2.2350    -0.5890    -1.1640 c3         1 2OW       0.219100
     16 C11          1.2180    -1.4620     0.9890 ca         1 2OW      -0.103000
     17 C12          0.1460    -1.5930     1.8590 ca         1 2OW      -0.128000
     18 C14         -1.2340    -0.2580     0.4120 ca         1 2OW       0.037600
     19 N15         -2.4210     0.3980     0.0740 ns         1 2OW      -0.492100
     20 C16         -3.6680    -0.1530     0.2100 c          1 2OW       0.803100
     21 O17         -3.8630    -1.2640     0.6690 o          1 2OW      -0.604100
     22 N18         -4.6610     0.6850    -0.2180 ns         1 2OW      -0.481100
     23 C19         -6.0300     0.4410    -0.2470 ca         1 2OW      -0.035700
     24 N21         -8.1550     1.3710    -0.8730 nb         1 2OW      -0.651000
     25 C25         -6.6720    -0.7080     0.2070 ca         1 2OW      -0.115000
     26 F27         -0.3060     0.5570    -1.5770 f          1 2OW      -0.154900
     27 C29          5.1680     0.2160     1.0200 c6         1 2OW       0.110000
     28 H1          -1.8870    -1.0760     2.2870 ha         1 2OW       0.157000
     29 H2          -6.3840     2.3640    -1.1430 h4         1 2OW       0.010100
     30 H3          -8.5660    -1.6630     0.4550 ha         1 2OW       0.142000
     31 H4           3.9480     1.3440    -0.3520 h1         1 2OW       0.044450
     32 H5           3.0770     0.6200     1.0060 h1         1 2OW       0.044450
     33 H6           8.7730     2.8280     1.7130 h1         1 2OW       0.048033
     34 H7           9.6660     1.3990     1.1600 h1         1 2OW       0.048033
     35 H8           9.0480     2.5740    -0.0200 h1         1 2OW       0.048033
     36 H9           6.6800    -1.4350    -1.4840 h1         1 2OW       0.063450
     37 H10          5.8010    -2.1790    -0.1490 h1         1 2OW       0.063450
     38 H11          4.7160    -0.1970    -2.2020 h1         1 2OW       0.044450
     39 H12          4.3100    -1.9110    -2.0440 h1         1 2OW       0.044450
     40 H14          2.1380    -1.3850    -1.9080 h1         1 2OW       0.050200
     41 H15          2.1580     0.3570    -1.7210 h1         1 2OW       0.050200
     42 H16          2.1700    -1.9220     1.2160 ha         1 2OW       0.156000
     43 H17          0.2620    -2.1620     2.7710 ha         1 2OW       0.141000
     44 H18         -2.3310     1.2500    -0.4570 hn         1 2OW       0.324500
     45 H19         -4.3850     1.5890    -0.5720 hn         1 2OW       0.317500
     46 H20        -10.5670     0.2420    -1.6240 hc         1 2OW       0.049367
     47 H21        -10.6830    -0.6690    -0.1190 hc         1 2OW       0.049367
     48 H22        -10.7290     1.0950    -0.0970 hc         1 2OW       0.049367
     49 H23         -6.1260    -1.5320     0.6350 ha         1 2OW       0.172000
     50 H24          5.4260     1.1170     1.5670 h1         1 2OW       0.063450
     51 H25          5.0320    -0.5920     1.7480 h1         1 2OW       0.063450
     52 C23        -10.2680     0.2290    -0.5740 c3         1 2OW      -0.137400
     53 C03          7.4460     0.4150     0.0360 c          1 2OW       0.762100
@<TRIPOS>BOND
     1     1     6 ar  
     2     1    15 1   
     3     1    16 ar  
     4     2    17 ar  
     5     2    18 ar  
     6     2    28 1   
     7     3    23 ar  
     8     3    24 ar  
     9     3    29 1   
    10     4     5 ar  
    11     4    24 ar  
    12     4    52 1   
    13     5    25 ar  
    14     5    30 1   
    15     6    18 ar  
    16     6    26 1   
    17     7    14 1   
    18     7    27 1   
    19     7    31 1   
    20     7    32 1   
    21     8     9 1   
    22     8    33 1   
    23     8    34 1   
    24     8    35 1   
    25     9    53 1   
    26    10    53 2   
    27    11    12 1   
    28    11    27 1   
    29    11    53 1   
    30    12    13 1   
    31    12    36 1   
    32    12    37 1   
    33    13    14 1   
    34    13    38 1   
    35    13    39 1   
    36    14    15 1   
    37    15    40 1   
    38    15    41 1   
    39    16    17 ar  
    40    16    42 1   
    41    17    43 1   
    42    18    19 1   
    43    19    20 1   
    44    19    44 1   
    45    20    21 2   
    46    20    22 1   
    47    22    23 1   
    48    22    45 1   
    49    23    25 ar  
    50    25    49 1   
    51    27    50 1   
    52    27    51 1   
    53    46    52 1   
    54    47    52 1   
    55    48    52 1   
@<TRIPOS>SUBSTRUCTURE
     1 2OW         1 TEMP              0 ****  ****    0 ROOT
