@<TRIPOS>MOLECULE
2OX
   35    37     1     0     0
SMALL
abcg2


@<TRIPOS>ATOM
      1 CAO         -3.9520    -1.0400     0.3630 ca         1 2OX      -0.102500
      2 CAP         -5.3250    -0.8980     0.2340 ca         1 2OX      -0.098000
      3 CAQ         -5.8680     0.2710    -0.2820 ca         1 2OX      -0.103000
      4 CAR         -5.0290     1.3080    -0.6640 ca         1 2OX      -0.098000
      5 CAS         -3.6540     1.1870    -0.5250 ca         1 2OX      -0.102500
      6 CAN         -3.1230     0.0090    -0.0170 ca         1 2OX      -0.001200
      7 NAK         -1.7230    -0.1250     0.1170 na         1 2OX       0.221000
      8 CAJ         -0.7460     0.4350    -0.6270 cc         1 2OX      -0.175000
      9 NAL         -1.2040    -0.8860     1.0720 nc         1 2OX      -0.190800
     10 NAM          0.0740    -0.8350     0.9670 nd         1 2OX      -0.368000
     11 CAF          0.4130    -0.0280    -0.0670 cd         1 2OX       0.176300
     12 CAD          1.8250     0.2290    -0.4640 c5         1 2OX       0.172200
     13 NAE          2.5490    -0.9820    -0.8510 n7         1 2OX      -0.863400
     14 CAA          3.7430    -1.1320    -0.0140 c5         1 2OX       0.181500
     15 CAG          4.8530    -1.8700    -0.7380 c3         1 2OX      -0.073100
     16 CAB          4.0620     0.2990     0.3940 c5         1 2OX       0.133300
     17 OAH          4.6620     0.9910    -0.6730 oh         1 2OX      -0.641000
     18 CAC          2.6600     0.8360     0.6760 c5         1 2OX       0.104300
     19 OAI          2.5520     2.2340     0.6650 oh         1 2OX      -0.653000
     20 H1          -3.5320    -1.9570     0.7500 ha         1 2OX       0.134000
     21 H2          -5.9710    -1.7140     0.5310 ha         1 2OX       0.122000
     22 H3          -6.9400     0.3730    -0.3860 ha         1 2OX       0.121000
     23 H4          -5.4420     2.2250    -1.0630 ha         1 2OX       0.122000
     24 H5          -3.0110     2.0120    -0.8010 ha         1 2OX       0.134000
     25 H6          -0.9330     1.0720    -1.4750 h4         1 2OX       0.175000
     26 H7           1.8060     0.9430    -1.2970 h1         1 2OX       0.086700
     27 H8           1.9640    -1.8050    -0.8110 hn         1 2OX       0.429000
     28 H10          3.5190    -1.6750     0.9150 h1         1 2OX       0.028700
     29 H11          5.1280    -1.3620    -1.6610 hc         1 2OX       0.042700
     30 H12          5.7410    -1.9540    -0.1100 hc         1 2OX       0.042700
     31 H13          4.5330    -2.8810    -0.9930 hc         1 2OX       0.042700
     32 H14          4.6970     0.3220     1.2900 h1         1 2OX       0.042700
     33 H15          4.4610     1.9270    -0.5590 ho         1 2OX       0.450000
     34 H16          2.3230     0.4170     1.6330 h1         1 2OX       0.058700
     35 H17          2.8860     2.5740     1.5010 ho         1 2OX       0.448000
@<TRIPOS>BOND
     1     1     2 ar  
     2     1     6 ar  
     3     1    20 1   
     4     2     3 ar  
     5     2    21 1   
     6     3     4 ar  
     7     3    22 1   
     8     4     5 ar  
     9     4    23 1   
    10     5     6 ar  
    11     5    24 1   
    12     6     7 1   
    13     7     8 1   
    14     7     9 1   
    15     8    11 2   
    16     8    25 1   
    17     9    10 2   
    18    10    11 1   
    19    11    12 1   
    20    12    13 1   
    21    12    18 1   
    22    12    26 1   
    23    13    14 1   
    24    13    27 1   
    25    14    15 1   
    26    14    16 1   
    27    14    28 1   
    28    15    29 1   
    29    15    30 1   
    30    15    31 1   
    31    16    17 1   
    32    16    18 1   
    33    16    32 1   
    34    17    33 1   
    35    18    19 1   
    36    18    34 1   
    37    19    35 1   
@<TRIPOS>SUBSTRUCTURE
     1 2OX         1 TEMP              0 ****  ****    0 ROOT
