@<TRIPOS>MOLECULE
2OX
   35    37     1     0     0
SMALL
No Charge or Current Charge


@<TRIPOS>ATOM
      1 CAO         -4.0980    -1.0460     0.0060 ca         1 2OX      -0.102500
      2 CAP         -5.4470    -0.6650    -0.1130 ca         1 2OX      -0.098000
      3 CAQ         -5.7880     0.6930    -0.2240 ca         1 2OX      -0.103000
      4 CAR         -4.7800     1.6710    -0.2160 ca         1 2OX      -0.098000
      5 CAS         -3.4310     1.2930    -0.0980 ca         1 2OX      -0.102500
      6 CAN         -3.0770    -0.0700     0.0140 ca         1 2OX      -0.001200
      7 NAK         -1.7340    -0.4480     0.1290 na         1 2OX       0.221000
      8 CAJ         -0.7010     0.1400    -0.5500 cc         1 2OX      -0.175000
      9 NAL         -1.3440    -1.4080     1.0180 nc         1 2OX      -0.190800
     10 NAM         -0.0400    -1.4750     0.9080 nd         1 2OX      -0.368000
     11 CAF          0.3640    -0.5390    -0.0300 cd         1 2OX       0.176300
     12 CAD          1.7760    -0.2280    -0.5150 c5         1 2OX       0.172200
     13 NAE          2.6770    -1.4260    -0.5780 n7         1 2OX      -0.863400
     14 CAA          3.9380    -1.0320     0.1130 c5         1 2OX       0.181500
     15 CAG          5.1790    -1.6890    -0.5290 c3         1 2OX      -0.073100
     16 CAB          3.9500     0.5380     0.1490 c5         1 2OX       0.133300
     17 OAH          4.3110     1.1570    -1.0980 oh         1 2OX      -0.641000
     18 CAC          2.4490     0.7710     0.4860 c5         1 2OX       0.104300
     19 OAI          2.0560     2.1400     0.2860 oh         1 2OX      -0.653000
     20 H1          -3.8480    -2.1020     0.0870 ha         1 2OX       0.134000
     21 H2          -6.2270    -1.4240    -0.1200 ha         1 2OX       0.122000
     22 H3          -6.8310     0.9870    -0.3150 ha         1 2OX       0.121000
     23 H4          -5.0440     2.7230    -0.2990 ha         1 2OX       0.122000
     24 H5          -2.6620     2.0630    -0.0850 ha         1 2OX       0.134000
     25 H6          -0.7990     0.9240    -1.2870 h4         1 2OX       0.175000
     26 H7           1.7090     0.2330    -1.5110 h1         1 2OX       0.086700
     27 H8           2.2420    -2.1950    -0.0500 hn         1 2OX       0.429000
     28 H10          3.8890    -1.3940     1.1500 h1         1 2OX       0.028700
     29 H11          5.2750    -1.4170    -1.5870 hc         1 2OX       0.042700
     30 H12          6.0950    -1.3760    -0.0160 hc         1 2OX       0.042700
     31 H13          5.1200    -2.7820    -0.4680 hc         1 2OX       0.042700
     32 H14          4.6020     0.9050     0.9530 h1         1 2OX       0.042700
     33 H15          3.6710     1.8970    -1.2020 ho         1 2OX       0.450000
     34 H16          2.2450     0.4630     1.5230 h1         1 2OX       0.058700
     35 H17          2.3010     2.6380     1.1000 ho         1 2OX       0.448000
@<TRIPOS>BOND
     1     1     2 ar  
     2     1     6 ar  
     3     1    20 1   
     4     2     3 ar  
     5     2    21 1   
     6     3     4 ar  
     7     3    22 1   
     8     4     5 ar  
     9     4    23 1   
    10     5     6 ar  
    11     5    24 1   
    12     6     7 1   
    13     7     8 1   
    14     7     9 1   
    15     8    11 2   
    16     8    25 1   
    17     9    10 2   
    18    10    11 1   
    19    11    12 1   
    20    12    13 1   
    21    12    18 1   
    22    12    26 1   
    23    13    14 1   
    24    13    27 1   
    25    14    15 1   
    26    14    16 1   
    27    14    28 1   
    28    15    29 1   
    29    15    30 1   
    30    15    31 1   
    31    16    17 1   
    32    16    18 1   
    33    16    32 1   
    34    17    33 1   
    35    18    19 1   
    36    18    34 1   
    37    19    35 1   
@<TRIPOS>SUBSTRUCTURE
     1 2OX         1 TEMP              0 ****  ****    0 ROOT
