@<TRIPOS>MOLECULE
2OY
   44    44     1     0     0
SMALL
No Charge or Current Charge


@<TRIPOS>ATOM
      1 S           19.0940     1.2600    22.6740 sy         1 2OY       1.198600
      2 OS1         17.7710     1.8850    22.6440 o          1 2OY      -0.547000
      3 OS2         19.8810     1.1570    23.9020 o          1 2OY      -0.547000
      4 C7          20.0920     1.9360    21.3400 ca         1 2OY      -0.289500
      5 C5          21.4980     1.9520    21.4410 ca         1 2OY      -0.010000
      6 C3          22.2720     2.4720    20.3890 ca         1 2OY      -0.132000
      7 C2          21.6530     2.9840    19.2330 ca         1 2OY      -0.017300
      8 C4          20.2490     2.9790    19.1420 ca         1 2OY      -0.132000
      9 C6          19.4690     2.4610    20.1890 ca         1 2OY      -0.010000
     10 C1          22.4940     3.5450    18.0980 c3         1 2OY      -0.057800
     11 N           18.8250    -0.3050    22.1500 n7         1 2OY      -0.952300
     12 CA          19.9600    -1.2560    22.0400 c3         1 2OY       0.231500
     13 C           20.0000    -1.9270    20.6120 c3         1 2OY       0.154300
     14 O           21.1450    -2.8000    20.4960 oh         1 2OY      -0.659000
     15 CB          19.8250    -2.3500    23.1490 c3         1 2OY      -0.090400
     16 CG          19.8740    -1.8610    24.6180 c3         1 2OY      -0.078400
     17 CD          19.8480    -3.0200    25.6400 c3         1 2OY      -0.076400
     18 CE          19.8980    -2.5290    27.1020 c3         1 2OY       0.148800
     19 NZ          19.8740    -3.6560    28.0530 n8         1 2OY      -0.997200
     20 C8          20.0330    -0.9390    19.4150 c3         1 2OY       0.128600
     21 Cl1         18.3680    -0.4880    18.8170 cl         1 2OY      -0.278000
     22 H5          21.9960     1.5610    22.3260 ha         1 2OY       0.132000
     23 H3          23.3560     2.4770    20.4740 ha         1 2OY       0.116000
     24 H4          19.7590     3.3760    18.2560 ha         1 2OY       0.116000
     25 H6          18.3840     2.4570    20.0970 ha         1 2OY       0.132000
     26 H13         22.6740     4.6170    18.2390 hc         1 2OY       0.049033
     27 H12         23.4690     3.0460    18.0370 hc         1 2OY       0.049033
     28 H11         21.9970     3.4130    17.1290 hc         1 2OY       0.049033
     29 H           18.1930    -0.6270    22.8770 hn         1 2OY       0.503000
     30 HA          20.9220    -0.7420    22.1830 h1         1 2OY       0.089700
     31 H1          19.0860    -2.5270    20.5020 h1         1 2OY       0.048700
     32 H99         20.9010    -3.6620    20.9000 ho         1 2OY       0.454000
     33 HB2         18.8910    -2.9050    22.9920 hc         1 2OY       0.043200
     34 HB1         20.6360    -3.0770    23.0260 hc         1 2OY       0.043200
     35 HG1         20.7880    -1.2720    24.7720 hc         1 2OY       0.050200
     36 HG2         19.0220    -1.2020    24.8220 hc         1 2OY       0.050200
     37 HD2         18.9380    -3.6130    25.4870 hc         1 2OY       0.043200
     38 HD1         20.7010    -3.6840    25.4540 hc         1 2OY       0.043200
     39 HE1         20.8160    -1.9490    27.2670 h1         1 2OY       0.031700
     40 HE2         19.0350    -1.8780    27.3040 h1         1 2OY       0.031700
     41 HZ2         19.8430    -3.2860    29.0110 hn         1 2OY       0.391500
     42 HZ3         18.9800    -4.1530    27.9600 hn         1 2OY       0.391500
     43 H83         20.5790    -0.0260    19.6720 h1         1 2OY       0.078200
     44 H82         20.5390    -1.4090    18.5620 h1         1 2OY       0.078200
@<TRIPOS>BOND
     1     1     2 2   
     2     1     3 2   
     3     1     4 1   
     4     1    11 1   
     5     4     5 ar  
     6     4     9 ar  
     7     5     6 ar  
     8     5    22 1   
     9     6     7 ar  
    10     6    23 1   
    11     7     8 ar  
    12     7    10 1   
    13     8     9 ar  
    14     8    24 1   
    15     9    25 1   
    16    10    26 1   
    17    10    27 1   
    18    10    28 1   
    19    11    12 1   
    20    11    29 1   
    21    12    13 1   
    22    12    15 1   
    23    12    30 1   
    24    13    14 1   
    25    13    20 1   
    26    13    31 1   
    27    14    32 1   
    28    15    16 1   
    29    15    33 1   
    30    15    34 1   
    31    16    17 1   
    32    16    35 1   
    33    16    36 1   
    34    17    18 1   
    35    17    37 1   
    36    17    38 1   
    37    18    19 1   
    38    18    39 1   
    39    18    40 1   
    40    19    41 1   
    41    19    42 1   
    42    20    21 1   
    43    20    43 1   
    44    20    44 1   
@<TRIPOS>SUBSTRUCTURE
     1 2OY         1 TEMP              0 ****  ****    0 ROOT
