@<TRIPOS>MOLECULE
2OY
   44    44     1     0     0
SMALL
bcc


@<TRIPOS>ATOM
      1 S           20.1390     1.0360    22.7500 sy         1 2OY       1.340200
      2 OS1         19.0050     1.6820    23.3940 o          1 2OY      -0.617800
      3 OS2         21.3640     0.8150    23.5030 o          1 2OY      -0.617800
      4 C7          20.5450     2.0030    21.3230 ca         1 2OY      -0.289500
      5 C5          21.8460     2.0090    20.8410 ca         1 2OY      -0.028000
      6 C3          22.1360     2.7150    19.6830 ca         1 2OY      -0.150000
      7 C2          21.1480     3.4200    19.0000 ca         1 2OY      -0.017300
      8 C4          19.8520     3.4070    19.5140 ca         1 2OY      -0.150000
      9 C6          19.5440     2.7050    20.6660 ca         1 2OY      -0.028000
     10 C1          21.4720     4.1960    17.7590 c3         1 2OY      -0.057800
     11 N           19.6350    -0.4090    22.1870 n7         1 2OY      -0.897100
     12 CA          20.4000    -1.6450    22.2080 c3         1 2OY       0.231500
     13 C           20.4430    -2.2960    20.8130 c3         1 2OY       0.131100
     14 O           21.3670    -3.3630    20.8260 oh         1 2OY      -0.596800
     15 CB          19.8470    -2.6080    23.2610 c3         1 2OY      -0.090400
     16 CG          19.8340    -2.0440    24.6750 c3         1 2OY      -0.078400
     17 CD          19.3430    -3.0590    25.6980 c3         1 2OY      -0.076400
     18 CE          19.3180    -2.4980    27.1120 c3         1 2OY       0.148800
     19 NZ          18.8600    -3.4990    28.0660 n8         1 2OY      -0.886800
     20 C8          20.9280    -1.3520    19.7150 c3         1 2OY       0.052000
     21 CL1         19.5990    -0.3780    19.0110 cl         1 2OY      -0.201400
     22 H5          22.6330     1.4710    21.3520 ha         1 2OY       0.150000
     23 H3          23.1520     2.7140    19.3070 ha         1 2OY       0.134000
     24 H4          19.0670     3.9490    19.0010 ha         1 2OY       0.134000
     25 H6          18.5280     2.7050    21.0380 ha         1 2OY       0.150000
     26 H13         21.6990     5.2360    18.0020 hc         1 2OY       0.049033
     27 H12         22.3400     3.7850    17.2450 hc         1 2OY       0.049033
     28 H11         20.6340     4.2020    17.0640 hc         1 2OY       0.049033
     29 H           18.6570    -0.4520    21.9300 hn         1 2OY       0.447800
     30 HA          21.4290    -1.3860    22.4710 h1         1 2OY       0.089700
     31 H1          19.4390    -2.6530    20.5470 h1         1 2OY       0.048700
     32 H99         20.9400    -4.1460    21.1840 ho         1 2OY       0.415000
     33 HB2         18.8320    -2.9050    22.9720 hc         1 2OY       0.043200
     34 HB1         20.4490    -3.5200    23.2560 hc         1 2OY       0.043200
     35 HG1         20.8410    -1.7120    24.9440 hc         1 2OY       0.050200
     36 HG2         19.1970    -1.1550    24.7140 hc         1 2OY       0.050200
     37 HD2         18.3370    -3.3960    25.4240 hc         1 2OY       0.043200
     38 HD1         19.9820    -3.9480    25.6790 hc         1 2OY       0.043200
     39 HE1         20.3320    -2.1970    27.3920 h1         1 2OY       0.031700
     40 HE2         18.7150    -1.5780    27.1170 h1         1 2OY       0.031700
     41 HZ2         18.8820    -3.1100    29.0000 hn         1 2OY       0.336300
     42 HZ3         17.8870    -3.7100    27.8830 hn         1 2OY       0.336300
     43 H83         21.6880    -0.6580    20.0710 h1         1 2OY       0.078200
     44 H82         21.3450    -1.9360    18.8970 h1         1 2OY       0.078200
@<TRIPOS>BOND
     1     1     2 2   
     2     1     3 2   
     3     1     4 1   
     4     1    11 1   
     5     4     5 ar  
     6     4     9 ar  
     7     5     6 ar  
     8     5    22 1   
     9     6     7 ar  
    10     6    23 1   
    11     7     8 ar  
    12     7    10 1   
    13     8     9 ar  
    14     8    24 1   
    15     9    25 1   
    16    10    26 1   
    17    10    27 1   
    18    10    28 1   
    19    11    12 1   
    20    11    29 1   
    21    12    13 1   
    22    12    15 1   
    23    12    30 1   
    24    13    14 1   
    25    13    20 1   
    26    13    31 1   
    27    14    32 1   
    28    15    16 1   
    29    15    33 1   
    30    15    34 1   
    31    16    17 1   
    32    16    35 1   
    33    16    36 1   
    34    17    18 1   
    35    17    37 1   
    36    17    38 1   
    37    18    19 1   
    38    18    39 1   
    39    18    40 1   
    40    19    41 1   
    41    19    42 1   
    42    20    21 1   
    43    20    43 1   
    44    20    44 1   
@<TRIPOS>SUBSTRUCTURE
     1 2OY         1 TEMP              0 ****  ****    0 ROOT
