@<TRIPOS>MOLECULE
2OZ
   38    39     1     0     0
SMALL
abcg2


@<TRIPOS>ATOM
      1 CAA         36.7620   -49.7920    20.0350 ca         1 2OZ      -0.091000
      2 CAE         34.3940   -49.9940    20.2480 ca         1 2OZ       0.158000
      3 CAF         35.4920   -49.2900    19.7850 ca         1 2OZ      -0.130000
      4 FAG         33.1510   -49.4940    20.0160 f          1 2OZ      -0.181000
      5 CAD         34.5160   -51.1780    20.9470 ca         1 2OZ      -0.130000
      6 CAC         35.7920   -51.6820    21.1770 ca         1 2OZ      -0.091000
      7 CAB         36.9160   -50.9960    20.7220 ca         1 2OZ       0.051600
      8 NAH         38.1920   -51.5070    21.0500 ns         1 2OZ      -0.382100
      9 CAI         39.2610   -51.6790    20.2260 cs         1 2OZ       0.492400
     10 SAU         39.1040   -51.5550    18.5400 s          1 2OZ      -0.618400
     11 NAJ         40.4290   -51.9770    20.8430 n          1 2OZ      -0.364800
     12 CAO         40.6690   -51.8050    22.2790 c6         1 2OZ       0.058000
     13 CAN         41.8120   -50.8180    22.5170 c6         1 2OZ       0.125300
     14 OAS         41.4940   -49.5130    22.0440 oh         1 2OZ      -0.709000
     15 CAM         43.0820   -51.2690    21.7940 c6         1 2OZ       0.134300
     16 OAR         43.6120   -52.4360    22.4150 oh         1 2OZ      -0.649000
     17 CAL         42.7710   -51.5520    20.3240 c6         1 2OZ       0.181300
     18 OAQ         43.8900   -52.0800    19.6250 oh         1 2OZ      -0.689000
     19 CAK         41.5830   -52.4980    20.0980 c6         1 2OZ       0.103700
     20 CAP         41.8070   -53.9870    20.4020 c3         1 2OZ       0.162600
     21 OAT         42.2000   -54.6280    19.1840 oh         1 2OZ      -0.648000
     22 H1          37.6320   -49.2480    19.7010 ha         1 2OZ       0.129000
     23 H2          35.3550   -48.3570    19.2540 ha         1 2OZ       0.137000
     24 H3          33.6350   -51.7000    21.2980 ha         1 2OZ       0.137000
     25 H4          35.9160   -52.6130    21.7160 ha         1 2OZ       0.129000
     26 H5          38.2390   -51.9470    21.9560 hn         1 2OZ       0.307500
     27 H6          39.7870   -51.4210    22.7800 h1         1 2OZ       0.058200
     28 H7          40.9190   -52.7660    22.7330 h1         1 2OZ       0.058200
     29 H8          42.0150   -50.7950    23.5940 h1         1 2OZ       0.037700
     30 H9          40.7390   -49.1760    22.5430 ho         1 2OZ       0.510000
     31 H10         43.8150   -50.4550    21.8370 h1         1 2OZ       0.052700
     32 H11         43.9300   -52.1920    23.2940 ho         1 2OZ       0.441000
     33 H12         42.4770   -50.5900    19.8920 h1         1 2OZ       0.068700
     34 H13         44.6350   -51.4780    19.7490 ho         1 2OZ       0.504000
     35 H14         41.3210   -52.4360    19.0460 h1         1 2OZ       0.140700
     36 H15         40.8610   -54.4090    20.7580 h1         1 2OZ       0.033200
     37 H16         42.5640   -54.1320    21.1710 h1         1 2OZ       0.033200
     38 H17         42.5120   -55.5150    19.4010 ho         1 2OZ       0.442000
@<TRIPOS>BOND
     1     1     3 ar  
     2     1     7 ar  
     3     1    22 1   
     4     2     3 ar  
     5     2     4 1   
     6     2     5 ar  
     7     3    23 1   
     8     5     6 ar  
     9     5    24 1   
    10     6     7 ar  
    11     6    25 1   
    12     7     8 1   
    13     8     9 1   
    14     8    26 1   
    15     9    10 2   
    16     9    11 1   
    17    11    12 1   
    18    11    19 1   
    19    12    13 1   
    20    12    27 1   
    21    12    28 1   
    22    13    14 1   
    23    13    15 1   
    24    13    29 1   
    25    14    30 1   
    26    15    16 1   
    27    15    17 1   
    28    15    31 1   
    29    16    32 1   
    30    17    18 1   
    31    17    19 1   
    32    17    33 1   
    33    18    34 1   
    34    19    20 1   
    35    19    35 1   
    36    20    21 1   
    37    20    36 1   
    38    20    37 1   
    39    21    38 1   
@<TRIPOS>SUBSTRUCTURE
     1 2OZ         1 TEMP              0 ****  ****    0 ROOT
