@<TRIPOS>MOLECULE
2OZ
   38    39     1     0     0
SMALL
No Charge or Current Charge


@<TRIPOS>ATOM
      1 CAA         36.4510   -50.1510    19.5290 ca         1 2OZ      -0.091000
      2 CAE         34.1510   -50.1970    20.3180 ca         1 2OZ       0.158000
      3 CAF         35.0990   -49.7970    19.3650 ca         1 2OZ      -0.130000
      4 FAG         32.8530   -49.8560    20.1600 f          1 2OZ      -0.181000
      5 CAD         34.5460   -50.9420    21.4390 ca         1 2OZ      -0.130000
      6 CAC         35.8980   -51.2950    21.6040 ca         1 2OZ      -0.091000
      7 CAB         36.8570   -50.9170    20.6430 ca         1 2OZ       0.051600
      8 NAH         38.2080   -51.2790    20.8640 ns         1 2OZ      -0.382100
      9 CAI         39.2690   -51.5370    20.0300 cs         1 2OZ       0.492400
     10 SAU         39.0910   -51.7040    18.3710 s          1 2OZ      -0.618400
     11 NAJ         40.4610   -51.7510    20.7220 n          1 2OZ      -0.364800
     12 CAO         40.6350   -51.6760    22.2210 c6         1 2OZ       0.058000
     13 CAN         41.8790   -50.8540    22.6690 c6         1 2OZ       0.125300
     14 OAS         41.7010   -49.4640    22.3270 oh         1 2OZ      -0.709000
     15 CAM         43.1720   -51.4190    22.0130 c6         1 2OZ       0.134300
     16 OAR         43.4920   -52.7230    22.5460 oh         1 2OZ      -0.649000
     17 CAL         42.9850   -51.4460    20.4610 c6         1 2OZ       0.181300
     18 OAQ         44.1630   -51.9450    19.7980 oh         1 2OZ      -0.689000
     19 CAK         41.7000   -52.2290    20.0130 c6         1 2OZ       0.103700
     20 CAP         41.8250   -53.7910    20.0950 c3         1 2OZ       0.162600
     21 OAT         42.9580   -54.3090    19.3740 oh         1 2OZ      -0.648000
     22 H1          37.1770   -49.8080    18.7980 ha         1 2OZ       0.129000
     23 H2          34.7880   -49.2080    18.5060 ha         1 2OZ       0.137000
     24 H3          33.8070   -51.2420    22.1780 ha         1 2OZ       0.137000
     25 H4          36.1980   -51.8720    22.4760 ha         1 2OZ       0.129000
     26 H5          38.4410   -51.3450    21.8440 hn         1 2OZ       0.307500
     27 H6          39.7620   -51.2380    22.7210 h1         1 2OZ       0.058200
     28 H7          40.7260   -52.6990    22.6130 h1         1 2OZ       0.058200
     29 H8          41.9790   -50.9470    23.7600 h1         1 2OZ       0.037700
     30 H9          41.0320   -49.0920    22.9480 ho         1 2OZ       0.510000
     31 H10         43.9970   -50.7250    22.2380 h1         1 2OZ       0.052700
     32 H11         43.9390   -52.5780    23.4090 ho         1 2OZ       0.441000
     33 H12         42.8330   -50.4010    20.1500 h1         1 2OZ       0.068700
     34 H13         43.9620   -52.9090    19.6490 ho         1 2OZ       0.504000
     35 H14         41.6030   -52.0060    18.9420 h1         1 2OZ       0.140700
     36 H15         40.9010   -54.2180    19.6820 h1         1 2OZ       0.033200
     37 H16         41.8720   -54.1000    21.1460 h1         1 2OZ       0.033200
     38 H17         42.8720   -55.2900    19.3720 ho         1 2OZ       0.442000
@<TRIPOS>BOND
     1     1     3 ar  
     2     1     7 ar  
     3     1    22 1   
     4     2     3 ar  
     5     2     4 1   
     6     2     5 ar  
     7     3    23 1   
     8     5     6 ar  
     9     5    24 1   
    10     6     7 ar  
    11     6    25 1   
    12     7     8 1   
    13     8     9 1   
    14     8    26 1   
    15     9    10 2   
    16     9    11 1   
    17    11    12 1   
    18    11    19 1   
    19    12    13 1   
    20    12    27 1   
    21    12    28 1   
    22    13    14 1   
    23    13    15 1   
    24    13    29 1   
    25    14    30 1   
    26    15    16 1   
    27    15    17 1   
    28    15    31 1   
    29    16    32 1   
    30    17    18 1   
    31    17    19 1   
    32    17    33 1   
    33    18    34 1   
    34    19    20 1   
    35    19    35 1   
    36    20    21 1   
    37    20    36 1   
    38    20    37 1   
    39    21    38 1   
@<TRIPOS>SUBSTRUCTURE
     1 2OZ         1 TEMP              0 ****  ****    0 ROOT
