@<TRIPOS>MOLECULE
2P0
   29    29     1     0     0
SMALL
No Charge or Current Charge


@<TRIPOS>ATOM
      1 C          -24.9820   -23.1490   -18.4060 c          1 2P0       0.729000
      2 N          -27.0410   -22.3920   -19.8410 n          1 2P0      -0.404800
      3 OXT        -24.3040   -22.7720   -17.4610 o          1 2P0      -0.738500
      4 CA         -26.4830   -22.6920   -18.4810 c5         1 2P0      -0.011300
      5 CB         -27.3860   -23.8760   -18.0120 c5         1 2P0      -0.075400
      6 CD         -28.2070   -23.2320   -20.1710 c5         1 2P0       0.108000
      7 CG         -28.7140   -23.6030   -18.7560 c5         1 2P0      -0.103400
      8 OAB        -26.8250   -21.5430   -21.9570 o          1 2P0      -0.668100
      9 OAC        -25.3220   -15.1370   -20.6520 o          1 2P0      -0.960500
     10 OAD        -23.5930   -17.5690   -22.0140 o          1 2P0      -0.892500
     11 OAF        -25.6600   -15.7180   -18.3420 o          1 2P0      -0.960500
     12 OAG        -23.4250   -15.7400   -19.2250 o          1 2P0      -0.960500
     13 OAH        -22.8910   -18.8440   -19.9970 o          1 2P0      -0.892500
     14 CAK        -25.3140   -20.5590   -20.2920 c3         1 2P0       0.176600
     15 OAM        -25.0030   -19.5090   -21.2410 os         1 2P0      -0.581400
     16 OAN        -25.1140   -17.5340   -19.9120 os         1 2P0      -0.733800
     17 CAP        -26.4240   -21.5420   -20.7920 c          1 2P0       0.608100
     18 PAS        -24.8490   -16.0230   -19.5530 p5         1 2P0       1.366900
     19 PAT        -24.0390   -18.2990   -20.7870 p5         1 2P0       1.477800
     20 O          -24.4940   -23.7820   -19.3320 o          1 2P0      -0.738500
     21 HA         -26.6120   -21.8230   -17.8230 h1         1 2P0       0.069700
     22 HB         -26.9710   -24.8450   -18.3150 hc         1 2P0       0.021200
     23 HBA        -27.5080   -23.9030   -16.9230 hc         1 2P0       0.021200
     24 HD         -28.9670   -22.6870   -20.7460 h1         1 2P0       0.016200
     25 HDA        -27.8990   -24.1190   -20.7390 h1         1 2P0       0.016200
     26 HG         -29.3810   -24.4720   -18.7640 hc         1 2P0       0.008200
     27 HGA        -29.2600   -22.7700   -18.2980 hc         1 2P0       0.008200
     28 HAK        -24.4170   -21.1530   -20.0840 h1         1 2P0       0.048200
     29 HAKA       -25.6580   -20.1310   -19.3420 h1         1 2P0       0.048200
@<TRIPOS>BOND
     1     1     3 1   
     2     1     4 1   
     3     1    20 1   
     4     2     4 1   
     5     2     6 1   
     6     2    17 1   
     7     4     5 1   
     8     4    21 1   
     9     5     7 1   
    10     5    22 1   
    11     5    23 1   
    12     6     7 1   
    13     6    24 1   
    14     6    25 1   
    15     7    26 1   
    16     7    27 1   
    17     8    17 2   
    18     9    18 1   
    19    10    19 1   
    20    11    18 1   
    21    12    18 1   
    22    13    19 1   
    23    14    15 1   
    24    14    17 1   
    25    14    28 1   
    26    14    29 1   
    27    15    19 1   
    28    16    18 1   
    29    16    19 1   
@<TRIPOS>SUBSTRUCTURE
     1 2P0         1 TEMP              0 ****  ****    0 ROOT
