@<TRIPOS>MOLECULE
2P0
   29    29     1     0     0
SMALL
bcc


@<TRIPOS>ATOM
      1 C          -24.9460   -23.3180   -18.5000 c          1 2P0       0.939600
      2 N          -26.8660   -22.4070   -19.9120 n          1 2P0      -0.471800
      3 OXT        -24.4130   -23.2520   -17.3760 o          1 2P0      -0.843800
      4 CA         -26.3440   -22.6570   -18.5730 c5         1 2P0      -0.011300
      5 CB         -27.3810   -23.6210   -17.9700 c5         1 2P0      -0.075400
      6 CD         -28.1220   -23.0960   -20.1660 c5         1 2P0       0.108000
      7 CG         -28.6520   -23.3590   -18.7640 c5         1 2P0      -0.103400
      8 OAB        -26.8600   -21.3720   -21.9110 o          1 2P0      -0.668100
      9 OAC        -25.8930   -15.2490   -20.5480 o          1 2P0      -0.960500
     10 OAD        -23.5760   -17.7410   -22.0450 o          1 2P0      -0.892500
     11 OAF        -25.9330   -16.1350   -18.1410 o          1 2P0      -0.960500
     12 OAG        -23.6860   -15.6470   -19.2970 o          1 2P0      -0.960500
     13 OAH        -22.9300   -18.9080   -19.8030 o          1 2P0      -0.892500
     14 CAK        -25.1740   -20.7170   -20.3250 c3         1 2P0       0.153400
     15 OAM        -24.8390   -19.7550   -21.2770 os         1 2P0      -0.558200
     16 OAN        -25.1660   -17.6460   -20.0150 os         1 2P0      -0.733800
     17 CAP        -26.3700   -21.5260   -20.7990 c          1 2P0       0.675100
     18 PAS        -25.1600   -15.9980   -19.4440 p5         1 2P0       1.366900
     19 PAT        -23.9780   -18.4210   -20.7680 p5         1 2P0       1.477800
     20 O          -24.5170   -23.8840   -19.5200 o          1 2P0      -0.843800
     21 HA         -26.3380   -21.7270   -17.9930 h1         1 2P0       0.069700
     22 HB         -27.0660   -24.6570   -18.1240 hc         1 2P0       0.021200
     23 HBA        -27.4950   -23.4710   -16.8970 hc         1 2P0       0.021200
     24 HD         -28.7880   -22.4760   -20.7640 h1         1 2P0       0.016200
     25 HDA        -27.9600   -24.0320   -20.7120 h1         1 2P0       0.016200
     26 HG         -29.3510   -24.1950   -18.7330 hc         1 2P0       0.008200
     27 HGA        -29.1700   -22.4740   -18.3870 hc         1 2P0       0.008200
     28 HAK        -24.3390   -21.4020   -20.1420 h1         1 2P0       0.048200
     29 HAKA       -25.4270   -20.2740   -19.3520 h1         1 2P0       0.048200
@<TRIPOS>BOND
     1     1     3 1   
     2     1     4 1   
     3     1    20 1   
     4     2     4 1   
     5     2     6 1   
     6     2    17 1   
     7     4     5 1   
     8     4    21 1   
     9     5     7 1   
    10     5    22 1   
    11     5    23 1   
    12     6     7 1   
    13     6    24 1   
    14     6    25 1   
    15     7    26 1   
    16     7    27 1   
    17     8    17 2   
    18     9    18 1   
    19    10    19 1   
    20    11    18 1   
    21    12    18 1   
    22    13    19 1   
    23    14    15 1   
    24    14    17 1   
    25    14    28 1   
    26    14    29 1   
    27    15    19 1   
    28    16    18 1   
    29    16    19 1   
@<TRIPOS>SUBSTRUCTURE
     1 2P0         1 TEMP              0 ****  ****    0 ROOT
