@<TRIPOS>MOLECULE
2P1
   47    50     1     0     0
SMALL
No Charge or Current Charge


@<TRIPOS>ATOM
      1 C1           3.9440     1.3110    -2.4900 ca         1 2P1      -0.135000
      2 C2           4.0360     2.3250    -1.5220 ca         1 2P1      -0.010000
      3 C3           4.0910     1.9970    -0.1500 ca         1 2P1      -0.217300
      4 C4           4.0710     0.6390     0.2350 ca         1 2P1       0.032000
      5 C5           3.9850    -0.3770    -0.7390 ca         1 2P1      -0.267500
      6 C6           3.9150    -0.0380    -2.1040 ca         1 2P1       0.010000
      7 S7           3.9350    -2.1060    -0.2320 sy         1 2P1       1.024000
      8 O8           4.3660    -2.9240    -1.3740 o          1 2P1      -0.520500
      9 O9           4.6020    -2.2100     1.0740 o          1 2P1      -0.520500
     10 C10          2.1720    -2.3960     0.0250 ca         1 2P1      -0.266500
     11 C11          1.5910    -2.1620     1.2890 ca         1 2P1      -0.015500
     12 C12          0.2140    -2.3720     1.4800 ca         1 2P1      -0.117000
     13 C13         -0.5940    -2.8160     0.4170 ca         1 2P1      -0.055300
     14 C14         -0.0130    -3.0410    -0.8450 ca         1 2P1      -0.117000
     15 C15          1.3620    -2.8330    -1.0440 ca         1 2P1      -0.015500
     16 C16         -2.0850    -3.0340     0.6250 c3         1 2P1       0.136300
     17 N17         -2.8400    -1.8130     0.3480 ns         1 2P1      -0.505900
     18 C18         -4.2080    -1.7090     0.4520 c          1 2P1       0.625700
     19 O19         -4.8890    -2.6660     0.7940 o          1 2P1      -0.604100
     20 C20         -4.8190    -0.3810     0.1300 ca         1 2P1      -0.250600
     21 C21         -6.2150    -0.2040     0.2150 ca         1 2P1       0.062000
     22 C22         -6.7030     1.0670    -0.1030 ca         1 2P1      -0.213000
     23 C23         -8.0370     1.5580    -0.1130 cc         1 2P1      -0.162100
     24 N24         -7.9390     2.8860    -0.5060 na         1 2P1       0.022500
     25 N25         -6.6130     3.2710    -0.7460 nc         1 2P1      -0.254400
     26 C27         -5.8830     2.1070    -0.4830 ca         1 2P1       0.235000
     27 N28         -4.5500     1.9450    -0.5660 nb         1 2P1      -0.627000
     28 C29         -4.0350     0.7250    -0.2660 ca         1 2P1       0.382900
     29 C30          4.1950     3.0930     0.9150 c3         1 2P1       0.359300
     30 F31          3.7160     4.2830     0.4870 f          1 2P1      -0.110000
     31 F32          3.5030     2.7810     2.0350 f          1 2P1      -0.110000
     32 F33          5.4790     3.2940     1.2870 f          1 2P1      -0.110000
     33 H1           3.8970     1.5730    -3.5440 ha         1 2P1       0.127000
     34 H2           4.0630     3.3640    -1.8470 ha         1 2P1       0.135000
     35 H3           4.1240     0.3750     1.2910 ha         1 2P1       0.153000
     36 H4           3.8390    -0.8110    -2.8680 ha         1 2P1       0.137000
     37 H5           2.1980    -1.8150     2.1240 ha         1 2P1       0.137500
     38 H6          -0.2240    -2.1870     2.4580 ha         1 2P1       0.126000
     39 H7          -0.6290    -3.3770    -1.6770 ha         1 2P1       0.126000
     40 H8           1.7910    -3.0090    -2.0290 ha         1 2P1       0.137500
     41 H9          -2.4400    -3.8340    -0.0370 h1         1 2P1       0.071200
     42 H10         -2.2740    -3.3450     1.6620 h1         1 2P1       0.071200
     43 H11         -2.3270    -0.9900     0.0610 hn         1 2P1       0.319500
     44 H12         -6.8860    -1.0080     0.5130 ha         1 2P1       0.143000
     45 H13         -8.9980     1.1030     0.1120 h4         1 2P1       0.236000
     46 H14         -8.7040     3.5470    -0.6210 hn         1 2P1       0.379000
     47 H15         -2.9520     0.6510    -0.3500 h4         1 2P1       0.016100
@<TRIPOS>BOND
     1     1     2 ar  
     2     1     6 ar  
     3     1    33 1   
     4     2     3 ar  
     5     2    34 1   
     6     3     4 ar  
     7     3    29 1   
     8     4     5 ar  
     9     4    35 1   
    10     5     6 ar  
    11     5     7 1   
    12     6    36 1   
    13     7     8 2   
    14     7     9 2   
    15     7    10 1   
    16    10    11 ar  
    17    10    15 ar  
    18    11    12 ar  
    19    11    37 1   
    20    12    13 ar  
    21    12    38 1   
    22    13    14 ar  
    23    13    16 1   
    24    14    15 ar  
    25    14    39 1   
    26    15    40 1   
    27    16    17 1   
    28    16    41 1   
    29    16    42 1   
    30    17    18 1   
    31    17    43 1   
    32    18    19 2   
    33    18    20 1   
    34    20    21 ar  
    35    20    28 ar  
    36    21    22 ar  
    37    21    44 1   
    38    22    23 2   
    39    22    26 ar  
    40    23    24 1   
    41    23    45 1   
    42    24    25 1   
    43    24    46 1   
    44    25    26 2   
    45    26    27 ar  
    46    27    28 ar  
    47    28    47 1   
    48    29    30 1   
    49    29    31 1   
    50    29    32 1   
@<TRIPOS>SUBSTRUCTURE
     1 2P1         1 TEMP              0 ****  ****    0 ROOT
