@<TRIPOS>MOLECULE
2P1
   47    50     1     0     0
SMALL
bcc


@<TRIPOS>ATOM
      1 C1           4.2050     0.9460    -2.3350 ca         1 2P1      -0.153000
      2 C2           4.1480     2.1220    -1.5980 ca         1 2P1      -0.028000
      3 C3           3.9530     2.0700    -0.2250 ca         1 2P1      -0.217300
      4 C4           3.8130     0.8450     0.4180 ca         1 2P1       0.014000
      5 C5           3.8690    -0.3130    -0.3350 ca         1 2P1      -0.267500
      6 C6           4.0700    -0.2800    -1.7100 ca         1 2P1      -0.008000
      7 S7           3.6830    -1.8850     0.4730 sy         1 2P1       1.165600
      8 O8           4.4950    -2.8550    -0.2540 o          1 2P1      -0.591300
      9 O9           3.8980    -1.6810     1.9010 o          1 2P1      -0.591300
     10 C10          1.9780    -2.2810     0.2170 ca         1 2P1      -0.266500
     11 C11          1.0250    -1.7800     1.0970 ca         1 2P1      -0.033500
     12 C12         -0.3090    -2.0720     0.8800 ca         1 2P1      -0.135000
     13 C13         -0.6990    -2.8600    -0.2010 ca         1 2P1      -0.055300
     14 C14          0.2720    -3.3570    -1.0620 ca         1 2P1      -0.135000
     15 C15          1.6150    -3.0750    -0.8600 ca         1 2P1      -0.033500
     16 C16         -2.1540    -3.1810    -0.4300 c3         1 2P1       0.136300
     17 N17         -2.9720    -1.9960    -0.5380 ns         1 2P1      -0.572900
     18 C18         -3.8300    -1.5920     0.4180 c          1 2P1       0.692700
     19 O19         -4.0120    -2.2120     1.4560 o          1 2P1      -0.604100
     20 C20         -4.5800    -0.3330     0.1390 ca         1 2P1      -0.315900
     21 C21         -5.7810    -0.1350     0.7750 ca         1 2P1       0.044000
     22 C22         -6.4610     1.0540     0.4900 ca         1 2P1      -0.278300
     23 C23         -7.6620     1.6520     0.8620 cc         1 2P1      -0.112100
     24 N24         -7.6890     2.8080     0.2050 na         1 2P1       0.072800
     25 N25         -6.6390     3.0600    -0.5690 nc         1 2P1      -0.254400
     26 C27         -5.8700     1.9880    -0.4060 ca         1 2P1       0.300300
     27 N28         -4.6770     1.8070    -1.0050 nb         1 2P1      -0.627000
     28 C29         -4.0780     0.6820    -0.7310 ca         1 2P1       0.448200
     29 C30          3.8940     3.3160     0.6050 c3         1 2P1       0.723200
     30 F31          4.0340     4.4240    -0.1250 f          1 2P1      -0.231300
     31 F32          2.7290     3.4140     1.2580 f          1 2P1      -0.231300
     32 F33          4.8570     3.3300     1.5360 f          1 2P1      -0.231300
     33 H1           4.3590     0.9910    -3.4040 ha         1 2P1       0.145000
     34 H2           4.2610     3.0670    -2.1090 ha         1 2P1       0.153000
     35 H3           3.6670     0.7920     1.4900 ha         1 2P1       0.171000
     36 H4           4.1230    -1.1910    -2.2910 ha         1 2P1       0.155000
     37 H5           1.3110    -1.1730     1.9460 ha         1 2P1       0.155500
     38 H6          -1.0500    -1.6890     1.5710 ha         1 2P1       0.144000
     39 H7          -0.0170    -3.9710    -1.9060 ha         1 2P1       0.144000
     40 H8           2.3560    -3.4740    -1.5390 ha         1 2P1       0.155500
     41 H9          -2.2620    -3.7700    -1.3420 h1         1 2P1       0.071200
     42 H10         -2.5340    -3.7910     0.3890 h1         1 2P1       0.071200
     43 H11         -2.9200    -1.4920    -1.4080 hn         1 2P1       0.319500
     44 H12         -6.1860    -0.8730     1.4560 ha         1 2P1       0.161000
     45 H13         -8.4600     1.3430     1.5170 h4         1 2P1       0.186000
     46 H14         -8.4330     3.4900     0.2520 hn         1 2P1       0.328700
     47 H15         -3.1060     0.5470    -1.1950 h4         1 2P1       0.016100
@<TRIPOS>BOND
     1     1     2 ar  
     2     1     6 ar  
     3     1    33 1   
     4     2     3 ar  
     5     2    34 1   
     6     3     4 ar  
     7     3    29 1   
     8     4     5 ar  
     9     4    35 1   
    10     5     6 ar  
    11     5     7 1   
    12     6    36 1   
    13     7     8 2   
    14     7     9 2   
    15     7    10 1   
    16    10    11 ar  
    17    10    15 ar  
    18    11    12 ar  
    19    11    37 1   
    20    12    13 ar  
    21    12    38 1   
    22    13    14 ar  
    23    13    16 1   
    24    14    15 ar  
    25    14    39 1   
    26    15    40 1   
    27    16    17 1   
    28    16    41 1   
    29    16    42 1   
    30    17    18 1   
    31    17    43 1   
    32    18    19 2   
    33    18    20 1   
    34    20    21 ar  
    35    20    28 ar  
    36    21    22 ar  
    37    21    44 1   
    38    22    23 2   
    39    22    26 ar  
    40    23    24 1   
    41    23    45 1   
    42    24    25 1   
    43    24    46 1   
    44    25    26 2   
    45    26    27 ar  
    46    27    28 ar  
    47    28    47 1   
    48    29    30 1   
    49    29    31 1   
    50    29    32 1   
@<TRIPOS>SUBSTRUCTURE
     1 2P1         1 TEMP              0 ****  ****    0 ROOT
