@<TRIPOS>MOLECULE
2P2
   69    71     1     0     0
SMALL
No Charge or Current Charge


@<TRIPOS>ATOM
      1 C23         -1.6200     0.1730    -2.3880 c3         1 2P2      -0.157400
      2 C24         -2.6380     0.1860    -1.2240 c3         1 2P2      -0.064400
      3 C25         -3.5470    -1.0600    -1.1940 c3         1 2P2      -0.033100
      4 C26         -4.5150    -1.0300    -0.0190 ca         1 2P2      -0.078300
      5 C27         -5.8520    -0.6260    -0.2050 ca         1 2P2      -0.106000
      6 C31         -4.0760    -1.3990     1.2680 ca         1 2P2      -0.106000
      7 C28         -6.7400    -0.5950     0.8840 ca         1 2P2      -0.109000
      8 C20         -4.9650    -1.3670     2.3570 ca         1 2P2      -0.109000
      9 C29         -6.2970    -0.9650     2.1650 ca         1 2P2      -0.111000
     10 C21         -0.7170     1.4170    -2.3190 c          1 2P2       0.602100
     11 O22         -1.0380     2.4460    -2.8990 o          1 2P2      -0.590100
     12 C10          1.3720    -0.7940    -0.4140 c          1 2P2       0.590100
     13 O11          0.6330    -0.7370     0.5600 o          1 2P2      -0.580100
     14 C12          1.3560     0.1970    -1.6380 c5         1 2P2       0.028700
     15 C13          2.7160     0.9290    -1.8300 c5         1 2P2      -0.090400
     16 C14          2.5860     2.0550    -0.7890 c5         1 2P2      -0.095400
     17 C15          1.1470     2.6020    -1.0730 c5         1 2P2       0.120700
     18 C16          0.5160     3.3880     0.1480 c3         1 2P2      -0.039000
     19 C17          1.4690     4.5340     0.5910 c3         1 2P2      -0.085767
     20 C18         -0.8350     4.0450    -0.2500 c3         1 2P2      -0.085767
     21 C19          0.2380     2.4750     1.3770 c3         1 2P2      -0.085767
     22 N20          0.4230     1.3570    -1.4870 n          1 2P2      -0.381800
     23 C1           3.6810    -1.9190     1.7280 c3         1 2P2       0.164300
     24 O2           4.7840    -1.2830     1.0500 oh         1 2P2      -0.643000
     25 C3           2.9530    -0.8890     2.6420 c3         1 2P2       0.131600
     26 O4           3.7880    -0.4760     3.7400 oh         1 2P2      -0.655000
     27 C5           2.7540    -2.6110     0.6760 c5         1 2P2       0.066700
     28 C6           3.4590    -3.8260    -0.0010 c5         1 2P2      -0.090400
     29 C7           2.6690    -3.9490    -1.3190 c5         1 2P2      -0.099400
     30 C8           2.6690    -2.4760    -1.7820 c5         1 2P2       0.094000
     31 N9           2.4090    -1.7580    -0.5050 n          1 2P2      -0.420800
     32 H23         -1.0350    -0.7440    -2.2740 hc         1 2P2       0.056200
     33 H23A        -2.1640     0.1640    -3.3400 hc         1 2P2       0.056200
     34 H24         -2.0950     0.2540    -0.2730 hc         1 2P2       0.061200
     35 H24A        -3.2630     1.0860    -1.2970 hc         1 2P2       0.061200
     36 H25         -4.0970    -1.1280    -2.1410 hc         1 2P2       0.042200
     37 H25A        -2.9230    -1.9600    -1.1360 hc         1 2P2       0.042200
     38 H27         -6.2030    -0.3350    -1.1920 ha         1 2P2       0.110000
     39 H31         -3.0450    -1.7090     1.4240 ha         1 2P2       0.110000
     40 H28         -7.7720    -0.2820     0.7350 ha         1 2P2       0.111000
     41 H20         -4.6200    -1.6530     3.3480 ha         1 2P2       0.111000
     42 H29         -6.9850    -0.9400     3.0080 ha         1 2P2       0.111000
     43 H12          1.1240    -0.3790    -2.5410 h1         1 2P2       0.065700
     44 H13          3.5960     0.2980    -1.6660 hc         1 2P2       0.057200
     45 H13A         2.8020     1.3390    -2.8430 hc         1 2P2       0.057200
     46 H14          2.7030     1.6590     0.2250 hc         1 2P2       0.057700
     47 H14A         3.3540     2.8260    -0.9200 hc         1 2P2       0.057700
     48 H15          1.1980     3.2940    -1.9260 h1         1 2P2       0.063700
     49 H17          1.7070     5.1930    -0.2530 hc         1 2P2       0.036922
     50 H17A         1.0120     5.1470     1.3780 hc         1 2P2       0.036922
     51 H17B         2.4110     4.1420     0.9920 hc         1 2P2       0.036922
     52 H18         -1.6040     3.2900    -0.4430 hc         1 2P2       0.036922
     53 H18A        -1.2120     4.6900     0.5530 hc         1 2P2       0.036922
     54 H18B        -0.7210     4.6630    -1.1490 hc         1 2P2       0.036922
     55 H19          1.1540     2.0180     1.7660 hc         1 2P2       0.036922
     56 H19A        -0.2090     3.0520     2.1960 hc         1 2P2       0.036922
     57 H19B        -0.4630     1.6730     1.1210 hc         1 2P2       0.036922
     58 HO2          4.4400    -1.0360     0.1660 ho         1 2P2       0.440000
     59 H3           2.6620    -0.0160     2.0430 h1         1 2P2       0.033700
     60 H3A          2.0320    -1.3470     3.0270 h1         1 2P2       0.033700
     61 HO4          3.2890     0.2050     4.2430 ho         1 2P2       0.444000
     62 H5           1.8400    -2.9510     1.1840 h1         1 2P2       0.077700
     63 H6           4.5210    -3.6390    -0.2000 hc         1 2P2       0.063200
     64 H6A          3.4000    -4.7340     0.6110 hc         1 2P2       0.063200
     65 H7           3.1480    -4.6170    -2.0430 hc         1 2P2       0.055200
     66 H7A          1.6500    -4.3170    -1.1470 hc         1 2P2       0.055200
     67 H8           3.6400    -2.1830    -2.2040 h1         1 2P2       0.052200
     68 H8A          1.8960    -2.3150    -2.5440 h1         1 2P2       0.052200
     69 H1           4.0580    -2.7110     2.3900 h1         1 2P2       0.085700
@<TRIPOS>BOND
     1     1     2 1   
     2     1    10 1   
     3     1    32 1   
     4     1    33 1   
     5     2     3 1   
     6     2    34 1   
     7     2    35 1   
     8     3     4 1   
     9     3    36 1   
    10     3    37 1   
    11     4     5 ar  
    12     4     6 ar  
    13     5     7 ar  
    14     5    38 1   
    15     6     8 ar  
    16     6    39 1   
    17     7     9 ar  
    18     7    40 1   
    19     8     9 ar  
    20     8    41 1   
    21     9    42 1   
    22    10    11 2   
    23    10    22 1   
    24    12    13 2   
    25    12    14 1   
    26    12    31 1   
    27    14    15 1   
    28    14    22 1   
    29    14    43 1   
    30    15    16 1   
    31    15    44 1   
    32    15    45 1   
    33    16    17 1   
    34    16    46 1   
    35    16    47 1   
    36    17    18 1   
    37    17    22 1   
    38    17    48 1   
    39    18    19 1   
    40    18    20 1   
    41    18    21 1   
    42    19    49 1   
    43    19    50 1   
    44    19    51 1   
    45    20    52 1   
    46    20    53 1   
    47    20    54 1   
    48    21    55 1   
    49    21    56 1   
    50    21    57 1   
    51    23    24 1   
    52    23    25 1   
    53    23    27 1   
    54    23    69 1   
    55    24    58 1   
    56    25    26 1   
    57    25    59 1   
    58    25    60 1   
    59    26    61 1   
    60    27    28 1   
    61    27    31 1   
    62    27    62 1   
    63    28    29 1   
    64    28    63 1   
    65    28    64 1   
    66    29    30 1   
    67    29    65 1   
    68    29    66 1   
    69    30    31 1   
    70    30    67 1   
    71    30    68 1   
@<TRIPOS>SUBSTRUCTURE
     1 2P2         1 TEMP              0 ****  ****    0 ROOT
