@<TRIPOS>MOLECULE
2P2
   69    71     1     0     0
SMALL
abcg2


@<TRIPOS>ATOM
      1 C23         -1.7180    -0.0040    -0.9310 c3         1 2P2      -0.157400
      2 C24         -3.1920     0.0510    -0.5600 c3         1 2P2      -0.064400
      3 C25         -3.8420    -1.3310    -0.6560 c3         1 2P2      -0.033100
      4 C26         -5.2950    -1.2920    -0.2720 ca         1 2P2      -0.078300
      5 C27         -6.2890    -1.1350    -1.2360 ca         1 2P2      -0.106000
      6 C31         -5.6750    -1.3630     1.0670 ca         1 2P2      -0.106000
      7 C28         -7.6270    -1.0530    -0.8730 ca         1 2P2      -0.109000
      8 C20         -7.0110    -1.2810     1.4350 ca         1 2P2      -0.109000
      9 C29         -7.9940    -1.1250     0.4650 ca         1 2P2      -0.111000
     10 C21         -1.0460     1.3570    -0.8900 c          1 2P2       0.602100
     11 O22         -1.7100     2.3780    -0.9650 o          1 2P2      -0.590100
     12 C10          1.6200    -0.6190    -0.0660 c          1 2P2       0.590100
     13 O11          1.2340    -0.4410     1.0760 o          1 2P2      -0.580100
     14 C12          1.1050     0.2430    -1.2220 c5         1 2P2       0.028700
     15 C13          2.1850     0.9040    -2.0850 c5         1 2P2      -0.090400
     16 C14          2.4160     2.2420    -1.4090 c5         1 2P2      -0.095400
     17 C15          1.0540     2.6520    -0.8330 c5         1 2P2       0.120700
     18 C16          1.1870     3.4740     0.4790 c3         1 2P2      -0.039000
     19 C17          2.0420     4.7020     0.1390 c3         1 2P2      -0.085767
     20 C18         -0.1630     3.9810     0.9920 c3         1 2P2      -0.085767
     21 C19          1.8520     2.6990     1.6150 c3         1 2P2      -0.085767
     22 N20          0.3080     1.3760    -0.7670 n          1 2P2      -0.381800
     23 C1           4.2740    -2.0060     1.3320 c3         1 2P2       0.164300
     24 O2           5.2580    -1.6650     0.3820 oh         1 2P2      -0.643000
     25 C3           4.0340    -0.8810     2.3240 c3         1 2P2       0.131600
     26 O4           5.2300    -0.6640     3.0390 oh         1 2P2      -0.655000
     27 C5           2.9960    -2.5180     0.6510 c5         1 2P2       0.066700
     28 C6           3.2510    -3.8330    -0.1050 c5         1 2P2      -0.090400
     29 C7           2.5350    -3.6700    -1.4400 c5         1 2P2      -0.099400
     30 C8           2.6740    -2.1810    -1.7120 c5         1 2P2       0.094000
     31 N9           2.5060    -1.5930    -0.3820 n          1 2P2      -0.420800
     32 H23         -1.1990    -0.7080    -0.2770 hc         1 2P2       0.056200
     33 H23A        -1.6190    -0.4060    -1.9470 hc         1 2P2       0.056200
     34 H24         -3.3070     0.4330     0.4580 hc         1 2P2       0.061200
     35 H24A        -3.7210     0.7450    -1.2160 hc         1 2P2       0.061200
     36 H25         -3.7360    -1.7080    -1.6770 hc         1 2P2       0.042200
     37 H25A        -3.3080    -2.0310    -0.0080 hc         1 2P2       0.042200
     38 H27         -6.0140    -1.0800    -2.2830 ha         1 2P2       0.110000
     39 H31         -4.9160    -1.4840     1.8310 ha         1 2P2       0.110000
     40 H28         -8.3850    -0.9340    -1.6370 ha         1 2P2       0.111000
     41 H20         -7.2860    -1.3410     2.4810 ha         1 2P2       0.111000
     42 H29         -9.0370    -1.0640     0.7480 ha         1 2P2       0.111000
     43 H12          0.4970    -0.4110    -1.8510 h1         1 2P2       0.065700
     44 H13          3.0990     0.3190    -2.1700 hc         1 2P2       0.057200
     45 H13A         1.7890     1.0400    -3.0920 hc         1 2P2       0.057200
     46 H14          3.1580     2.1320    -0.6160 hc         1 2P2       0.057700
     47 H14A         2.8030     2.9890    -2.1000 hc         1 2P2       0.057700
     48 H15          0.5370     3.2960    -1.5520 h1         1 2P2       0.063700
     49 H17          1.6150     5.2700    -0.6910 hc         1 2P2       0.036922
     50 H17A         2.0950     5.3720     1.0000 hc         1 2P2       0.036922
     51 H17B         3.0660     4.4380    -0.1280 hc         1 2P2       0.036922
     52 H18         -0.8090     3.1680     1.3220 hc         1 2P2       0.036922
     53 H18A         0.0030     4.6370     1.8500 hc         1 2P2       0.036922
     54 H18B        -0.6980     4.5520     0.2340 hc         1 2P2       0.036922
     55 H19          2.8560     2.3480     1.3670 hc         1 2P2       0.036922
     56 H19A         1.9470     3.3480     2.4880 hc         1 2P2       0.036922
     57 H19B         1.2650     1.8300     1.9040 hc         1 2P2       0.036922
     58 HO2          4.9470    -0.8930    -0.1040 ho         1 2P2       0.440000
     59 H3           3.7150     0.0290     1.7970 h1         1 2P2       0.033700
     60 H3A          3.2110    -1.1650     2.9900 h1         1 2P2       0.033700
     61 HO4          5.0860     0.0640     3.6490 ho         1 2P2       0.444000
     62 H5           2.2190    -2.6560     1.4060 h1         1 2P2       0.077700
     63 H6           4.3200    -3.9750    -0.2740 hc         1 2P2       0.063200
     64 H6A          2.8940    -4.6890     0.4660 hc         1 2P2       0.063200
     65 H7           2.9660    -4.2790    -2.2340 hc         1 2P2       0.055200
     66 H7A          1.4780    -3.9320    -1.3510 hc         1 2P2       0.055200
     67 H8           3.6630    -1.9480    -2.1160 h1         1 2P2       0.052200
     68 H8A          1.9350    -1.8180    -2.4220 h1         1 2P2       0.052200
     69 H1           4.6820    -2.8530     1.8940 h1         1 2P2       0.085700
@<TRIPOS>BOND
     1     1     2 1   
     2     1    10 1   
     3     1    32 1   
     4     1    33 1   
     5     2     3 1   
     6     2    34 1   
     7     2    35 1   
     8     3     4 1   
     9     3    36 1   
    10     3    37 1   
    11     4     5 ar  
    12     4     6 ar  
    13     5     7 ar  
    14     5    38 1   
    15     6     8 ar  
    16     6    39 1   
    17     7     9 ar  
    18     7    40 1   
    19     8     9 ar  
    20     8    41 1   
    21     9    42 1   
    22    10    11 2   
    23    10    22 1   
    24    12    13 2   
    25    12    14 1   
    26    12    31 1   
    27    14    15 1   
    28    14    22 1   
    29    14    43 1   
    30    15    16 1   
    31    15    44 1   
    32    15    45 1   
    33    16    17 1   
    34    16    46 1   
    35    16    47 1   
    36    17    18 1   
    37    17    22 1   
    38    17    48 1   
    39    18    19 1   
    40    18    20 1   
    41    18    21 1   
    42    19    49 1   
    43    19    50 1   
    44    19    51 1   
    45    20    52 1   
    46    20    53 1   
    47    20    54 1   
    48    21    55 1   
    49    21    56 1   
    50    21    57 1   
    51    23    24 1   
    52    23    25 1   
    53    23    27 1   
    54    23    69 1   
    55    24    58 1   
    56    25    26 1   
    57    25    59 1   
    58    25    60 1   
    59    26    61 1   
    60    27    28 1   
    61    27    31 1   
    62    27    62 1   
    63    28    29 1   
    64    28    63 1   
    65    28    64 1   
    66    29    30 1   
    67    29    65 1   
    68    29    66 1   
    69    30    31 1   
    70    30    67 1   
    71    30    68 1   
@<TRIPOS>SUBSTRUCTURE
     1 2P2         1 TEMP              0 ****  ****    0 ROOT
