@<TRIPOS>MOLECULE
2P3
   25    27     1     0     0
SMALL
No Charge or Current Charge


@<TRIPOS>ATOM
      1 C2          -3.3040     0.2870    -0.4640 cs         1 2P3       0.376400
      2 N3          -1.9740     0.4210    -0.3080 ns         1 2P3      -0.438900
      3 S1          -4.3990     1.3500    -1.1310 s          1 2P3      -0.585400
      4 C4          -1.4230    -0.6700     0.2930 cc         1 2P3       0.353900
      5 N5          -2.3330    -1.5560     0.5550 n2         1 2P3      -0.481300
      6 N6          -3.5010    -0.9560     0.0820 ns         1 2P3      -0.276400
      7 C7           0.0730    -0.6930     0.5480 c6         1 2P3       0.119000
      8 C8           0.7430    -1.8040    -0.2930 c6         1 2P3       0.134600
      9 O9           2.1670    -1.8230    -0.0440 os         1 2P3      -0.325100
     10 C10          2.8180    -0.6070     0.0180 ca         1 2P3       0.058100
     11 C11          2.0860     0.5990     0.1530 ca         1 2P3       0.049100
     12 O12          0.7090     0.5800     0.2550 os         1 2P3      -0.342100
     13 C13          2.7610     1.8300     0.1810 ca         1 2P3      -0.099000
     14 C14          4.1650     1.8620     0.1000 ca         1 2P3      -0.108000
     15 C15          4.8940     0.6630    -0.0120 ca         1 2P3      -0.102000
     16 C16          4.2200    -0.5710    -0.0520 ca         1 2P3      -0.103000
     17 H1          -1.4570     1.2450    -0.5910 hn         1 2P3       0.502000
     18 H2          -4.4420    -1.3590     0.1200 hn         1 2P3       0.509000
     19 H3           0.2480    -0.9210     1.6090 h1         1 2P3       0.085700
     20 H4           0.3200    -2.7880    -0.0470 h1         1 2P3       0.083700
     21 H5           0.5690    -1.6130    -1.3610 h1         1 2P3       0.083700
     22 H6           2.1990     2.7560     0.2770 ha         1 2P3       0.129000
     23 H7           4.6890     2.8150     0.1270 ha         1 2P3       0.122000
     24 H8           5.9800     0.6910    -0.0710 ha         1 2P3       0.122000
     25 H9           4.7820    -1.4970    -0.1470 ha         1 2P3       0.132000
@<TRIPOS>BOND
     1     1     2 1   
     2     1     3 2   
     3     1     6 1   
     4     2     4 1   
     5     2    17 1   
     6     4     5 2   
     7     4     7 1   
     8     5     6 1   
     9     6    18 1   
    10     7     8 1   
    11     7    12 1   
    12     7    19 1   
    13     8     9 1   
    14     8    20 1   
    15     8    21 1   
    16     9    10 1   
    17    10    11 ar  
    18    10    16 ar  
    19    11    12 1   
    20    11    13 ar  
    21    13    14 ar  
    22    13    22 1   
    23    14    15 ar  
    24    14    23 1   
    25    15    16 ar  
    26    15    24 1   
    27    16    25 1   
@<TRIPOS>SUBSTRUCTURE
     1 2P3         1 TEMP              0 ****  ****    0 ROOT
