@<TRIPOS>MOLECULE
2P3
   25    27     1     0     0
SMALL
abcg2


@<TRIPOS>ATOM
      1 C2          -3.3650     0.3130    -0.1340 cs         1 2P3       0.376400
      2 N3          -2.0940     0.5930     0.2540 ns         1 2P3      -0.438900
      3 S1          -4.6930     1.3200    -0.1510 s          1 2P3      -0.585400
      4 C4          -1.3340    -0.5230     0.0990 cc         1 2P3       0.353900
      5 N5          -2.0430    -1.4960    -0.3640 n2         1 2P3      -0.481300
      6 N6          -3.2780    -0.9760    -0.4970 ns         1 2P3      -0.276400
      7 C7           0.1060    -0.6020     0.4610 c6         1 2P3       0.119000
      8 C8           0.7880    -1.8220    -0.1340 c6         1 2P3       0.134600
      9 O9           2.1470    -1.8260     0.2530 os         1 2P3      -0.325100
     10 C10          2.7800    -0.6340     0.1210 ca         1 2P3       0.058100
     11 C11          2.0710     0.5600    -0.0210 ca         1 2P3       0.049100
     12 O12          0.7100     0.5800    -0.0320 os         1 2P3      -0.342100
     13 C13          2.7510     1.7620    -0.1550 ca         1 2P3      -0.099000
     14 C14          4.1380     1.7800    -0.1460 ca         1 2P3      -0.108000
     15 C15          4.8460     0.5950     0.0130 ca         1 2P3      -0.102000
     16 C16          4.1690    -0.6080     0.1410 ca         1 2P3      -0.103000
     17 H1          -1.7920     1.4940     0.5960 hn         1 2P3       0.502000
     18 H2          -4.0360    -1.5440    -0.8430 hn         1 2P3       0.509000
     19 H3           0.1970    -0.6340     1.5550 h1         1 2P3       0.085700
     20 H4           0.3440    -2.7400     0.2450 h1         1 2P3       0.083700
     21 H5           0.6960    -1.8110    -1.2250 h1         1 2P3       0.083700
     22 H6           2.1850     2.6780    -0.2700 ha         1 2P3       0.129000
     23 H7           4.6610     2.7200    -0.2530 ha         1 2P3       0.122000
     24 H8           5.9270     0.6030     0.0270 ha         1 2P3       0.122000
     25 H9           4.7100    -1.5390     0.2580 ha         1 2P3       0.132000
@<TRIPOS>BOND
     1     1     2 1   
     2     1     3 2   
     3     1     6 1   
     4     2     4 1   
     5     2    17 1   
     6     4     5 2   
     7     4     7 1   
     8     5     6 1   
     9     6    18 1   
    10     7     8 1   
    11     7    12 1   
    12     7    19 1   
    13     8     9 1   
    14     8    20 1   
    15     8    21 1   
    16     9    10 1   
    17    10    11 ar  
    18    10    16 ar  
    19    11    12 1   
    20    11    13 ar  
    21    13    14 ar  
    22    13    22 1   
    23    14    15 ar  
    24    14    23 1   
    25    15    16 ar  
    26    15    24 1   
    27    16    25 1   
@<TRIPOS>SUBSTRUCTURE
     1 2P3         1 TEMP              0 ****  ****    0 ROOT
