@<TRIPOS>MOLECULE
2P4
   52    54     1     0     0
SMALL
bcc


@<TRIPOS>ATOM
      1 C10         -1.1260     0.3340    -0.0740 c          1 2P4       0.667100
      2 O11         -1.0460     0.4370    -1.2910 o          1 2P4      -0.594100
      3 C12         -1.5250     1.5560     0.7390 c5         1 2P4      -0.105500
      4 C13         -3.0510     1.8040     0.6160 c5         1 2P4      -0.069400
      5 C14         -3.2090     3.3220     0.4320 c5         1 2P4      -0.062200
      6 C15         -1.8530     3.7630    -0.0160 c2         1 2P4      -0.080200
      7 C16         -0.9350     2.8150     0.1530 ce         1 2P4      -0.195400
      8 C1          -1.8670    -2.8060    -0.7000 c3         1 2P4       0.138100
      9 O2          -2.7810    -3.0440     0.3460 oh         1 2P4      -0.580800
     10 C3          -2.5370    -2.1610    -1.9010 c3         1 2P4       0.109400
     11 O4          -3.4870    -3.0720    -2.4100 oh         1 2P4      -0.593800
     12 C5          -0.6210    -2.0630    -0.1960 c5         1 2P4       0.069700
     13 C6           0.1730    -2.9230     0.8030 c5         1 2P4      -0.088400
     14 C7           0.5440    -1.9790     1.9380 c5         1 2P4      -0.100400
     15 C8          -0.6390    -1.0250     1.9780 c5         1 2P4       0.099000
     16 N9          -0.9560    -0.8450     0.5610 n          1 2P4      -0.482800
     17 C17          0.5020     2.9830    -0.1600 c          1 2P4       0.698300
     18 O18          0.8990     3.7790    -1.0020 o          1 2P4      -0.594100
     19 N19          1.3250     2.1860     0.5520 ns         1 2P4      -0.576900
     20 C20          2.7520     2.0870     0.3530 c3         1 2P4       0.146300
     21 C21          3.1800     0.6460     0.2320 ca         1 2P4      -0.116300
     22 C22          2.6330    -0.1680    -0.7600 ca         1 2P4      -0.115500
     23 C23          3.0270    -1.4920    -0.8790 ca         1 2P4      -0.135000
     24 C24          3.9650    -2.0240    -0.0020 ca         1 2P4      -0.126000
     25 C25          4.5080    -1.2230     0.9920 ca         1 2P4      -0.135000
     26 C26          4.1160     0.1060     1.1050 ca         1 2P4      -0.115500
     27 H12         -1.2620     1.4630     1.7960 hc         1 2P4       0.063700
     28 H13         -3.4410     1.2900    -0.2640 hc         1 2P4       0.055200
     29 H13A        -3.5920     1.4250     1.4810 hc         1 2P4       0.055200
     30 H14         -3.9910     3.5780    -0.2860 hc         1 2P4       0.061200
     31 H14A        -3.4750     3.8220     1.3680 hc         1 2P4       0.061200
     32 H15         -1.6490     4.7590    -0.3870 ha         1 2P4       0.159000
     33 H1          -1.5170    -3.7950    -1.0210 h1         1 2P4       0.084700
     34 HO2         -3.1310    -2.1940     0.6350 ho         1 2P4       0.401000
     35 H3          -3.0130    -1.2150    -1.6100 h1         1 2P4       0.033700
     36 H3A         -1.7700    -1.9190    -2.6450 h1         1 2P4       0.033700
     37 HO4         -3.9370    -2.6490    -3.1470 ho         1 2P4       0.404000
     38 H5           0.0040    -1.7900    -1.0490 h1         1 2P4       0.077700
     39 H6          -0.4490    -3.7350     1.1820 hc         1 2P4       0.062200
     40 H6A          1.0440    -3.3710     0.3260 hc         1 2P4       0.062200
     41 H7           0.6960    -2.4900     2.8880 hc         1 2P4       0.059700
     42 H7A          1.4570    -1.4300     1.6970 hc         1 2P4       0.059700
     43 H8          -1.4840    -1.4680     2.5110 h1         1 2P4       0.049700
     44 H8A         -0.3970    -0.0860     2.4680 h1         1 2P4       0.049700
     45 HN19         0.9440     1.6520     1.3160 hn         1 2P4       0.306500
     46 H20          3.0020     2.6370    -0.5530 h1         1 2P4       0.064200
     47 H20A         3.2880     2.5670     1.1760 h1         1 2P4       0.064200
     48 H22          1.8860     0.2320    -1.4350 ha         1 2P4       0.140000
     49 H23          2.5950    -2.1140    -1.6530 ha         1 2P4       0.131500
     50 H24          4.2660    -3.0600    -0.0920 ha         1 2P4       0.131000
     51 H25          5.2350    -1.6310     1.6820 ha         1 2P4       0.131500
     52 H26          4.5440     0.7280     1.8830 ha         1 2P4       0.140000
@<TRIPOS>BOND
     1     1     2 2   
     2     1     3 1   
     3     1    16 1   
     4     3     4 1   
     5     3     7 1   
     6     3    27 1   
     7     4     5 1   
     8     4    28 1   
     9     4    29 1   
    10     5     6 1   
    11     5    30 1   
    12     5    31 1   
    13     6     7 2   
    14     6    32 1   
    15     7    17 1   
    16     8     9 1   
    17     8    10 1   
    18     8    12 1   
    19     8    33 1   
    20     9    34 1   
    21    10    11 1   
    22    10    35 1   
    23    10    36 1   
    24    11    37 1   
    25    12    13 1   
    26    12    16 1   
    27    12    38 1   
    28    13    14 1   
    29    13    39 1   
    30    13    40 1   
    31    14    15 1   
    32    14    41 1   
    33    14    42 1   
    34    15    16 1   
    35    15    43 1   
    36    15    44 1   
    37    17    18 2   
    38    17    19 1   
    39    19    20 1   
    40    19    45 1   
    41    20    21 1   
    42    20    46 1   
    43    20    47 1   
    44    21    22 ar  
    45    21    26 ar  
    46    22    23 ar  
    47    22    48 1   
    48    23    24 ar  
    49    23    49 1   
    50    24    25 ar  
    51    24    50 1   
    52    25    26 ar  
    53    25    51 1   
    54    26    52 1   
@<TRIPOS>SUBSTRUCTURE
     1 2P4         1 TEMP              0 ****  ****    0 ROOT
