@<TRIPOS>MOLECULE
2P4
   52    54     1     0     0
SMALL
No Charge or Current Charge


@<TRIPOS>ATOM
      1 C10         -1.0070     0.2900    -0.1760 c          1 2P4       0.600100
      2 O11         -0.8310     0.2720    -1.3870 o          1 2P4      -0.594100
      3 C12         -1.5330     1.5270     0.6290 c5         1 2P4      -0.105500
      4 C13         -3.0510     1.7390     0.2710 c5         1 2P4      -0.069400
      5 C14         -3.2780     3.2800     0.4590 c5         1 2P4      -0.062200
      6 C15         -1.9460     3.8910     0.0860 c2         1 2P4      -0.130200
      7 C16         -1.0470     2.9020     0.1700 ce         1 2P4      -0.195400
      8 C1          -2.0090    -2.8700    -0.5920 c3         1 2P4       0.161300
      9 O2          -3.0580    -2.7760     0.3950 oh         1 2P4      -0.643000
     10 C3          -2.4990    -2.2730    -1.9450 c3         1 2P4       0.132600
     11 O4          -3.5340    -3.0830    -2.5330 oh         1 2P4      -0.656000
     12 C5          -0.7040    -2.2170    -0.0300 c5         1 2P4       0.069700
     13 C6          -0.1090    -3.0610     1.1400 c5         1 2P4      -0.088400
     14 C7           0.7170    -2.0100     1.9030 c5         1 2P4      -0.100400
     15 C8          -0.3000    -0.8520     1.9780 c5         1 2P4       0.099000
     16 N9          -0.9020    -0.8810     0.6180 n          1 2P4      -0.415800
     17 C17          0.4330     3.0510    -0.0650 c          1 2P4       0.631300
     18 O18          0.8920     3.9410    -0.7660 o          1 2P4      -0.594100
     19 N19          1.2450     2.1970     0.6460 ns         1 2P4      -0.509900
     20 C20          2.7000     2.1190     0.5170 c3         1 2P4       0.146300
     21 C21          3.1490     0.6870     0.2620 ca         1 2P4      -0.116300
     22 C22          2.7060     0.0000    -0.8870 ca         1 2P4      -0.097500
     23 C23          3.1240    -1.3190    -1.1320 ca         1 2P4      -0.117000
     24 C24          3.9910    -1.9610    -0.2320 ca         1 2P4      -0.108000
     25 C25          4.4370    -1.2820     0.9150 ca         1 2P4      -0.117000
     26 C26          4.0160     0.0370     1.1630 ca         1 2P4      -0.097500
     27 H12         -1.4480     1.4070     1.7130 hc         1 2P4       0.063700
     28 H13         -3.2540     1.4610    -0.7710 hc         1 2P4       0.055200
     29 H13A        -3.7200     1.1340     0.8950 hc         1 2P4       0.055200
     30 H14         -4.0920     3.6550    -0.1720 hc         1 2P4       0.061200
     31 H14A        -3.5310     3.5230     1.4980 hc         1 2P4       0.061200
     32 H15         -1.7450     4.9280    -0.1950 ha         1 2P4       0.209000
     33 H1          -1.7760    -3.9270    -0.7860 h1         1 2P4       0.084700
     34 HO2         -2.8750    -1.9530     0.8960 ho         1 2P4       0.440000
     35 H3          -2.8720    -1.2540    -1.7760 h1         1 2P4       0.033700
     36 H3A         -1.6440    -2.2050    -2.6310 h1         1 2P4       0.033700
     37 HO4         -3.8360    -2.6200    -3.3460 ho         1 2P4       0.443000
     38 H5           0.0330    -2.1410    -0.8430 h1         1 2P4       0.077700
     39 H6          -0.8850    -3.4890     1.7860 hc         1 2P4       0.062200
     40 H6A          0.5050    -3.8950     0.7790 hc         1 2P4       0.062200
     41 H7           1.0380    -2.3530     2.8930 hc         1 2P4       0.059700
     42 H7A          1.6110    -1.7190     1.3450 hc         1 2P4       0.059700
     43 H8          -1.0650    -1.0320     2.7450 h1         1 2P4       0.049700
     44 H8A          0.2120     0.0890     2.2130 h1         1 2P4       0.049700
     45 HN19         0.7870     1.5450     1.2650 hn         1 2P4       0.306500
     46 H20          3.0430     2.7520    -0.3110 h1         1 2P4       0.064200
     47 H20A         3.1540     2.5000     1.4410 h1         1 2P4       0.064200
     48 H22          2.0370     0.4910    -1.5910 ha         1 2P4       0.122000
     49 H23          2.7760    -1.8430    -2.0200 ha         1 2P4       0.113500
     50 H24          4.3150    -2.9820    -0.4210 ha         1 2P4       0.113000
     51 H25          5.1070    -1.7780     1.6140 ha         1 2P4       0.113500
     52 H26          4.3680     0.5530     2.0540 ha         1 2P4       0.122000
@<TRIPOS>BOND
     1     1     2 2   
     2     1     3 1   
     3     1    16 1   
     4     3     4 1   
     5     3     7 1   
     6     3    27 1   
     7     4     5 1   
     8     4    28 1   
     9     4    29 1   
    10     5     6 1   
    11     5    30 1   
    12     5    31 1   
    13     6     7 2   
    14     6    32 1   
    15     7    17 1   
    16     8     9 1   
    17     8    10 1   
    18     8    12 1   
    19     8    33 1   
    20     9    34 1   
    21    10    11 1   
    22    10    35 1   
    23    10    36 1   
    24    11    37 1   
    25    12    13 1   
    26    12    16 1   
    27    12    38 1   
    28    13    14 1   
    29    13    39 1   
    30    13    40 1   
    31    14    15 1   
    32    14    41 1   
    33    14    42 1   
    34    15    16 1   
    35    15    43 1   
    36    15    44 1   
    37    17    18 2   
    38    17    19 1   
    39    19    20 1   
    40    19    45 1   
    41    20    21 1   
    42    20    46 1   
    43    20    47 1   
    44    21    22 ar  
    45    21    26 ar  
    46    22    23 ar  
    47    22    48 1   
    48    23    24 ar  
    49    23    49 1   
    50    24    25 ar  
    51    24    50 1   
    52    25    26 ar  
    53    25    51 1   
    54    26    52 1   
@<TRIPOS>SUBSTRUCTURE
     1 2P4         1 TEMP              0 ****  ****    0 ROOT
