@<TRIPOS>MOLECULE
2P5
   79    84     1     0     0
SMALL
bcc


@<TRIPOS>ATOM
      1 C16         -0.6150    -1.2220    -2.0740 ca         1 2P5      -0.132000
      2 C17          0.1130    -0.1420    -1.6080 ca         1 2P5      -0.101000
      3 C20         -6.6220     0.0010     0.3080 ca         1 2P5      -0.089000
      4 C24         -6.9880    -2.2900    -0.2730 ca         1 2P5      -0.089000
      5 C8           4.4890    -1.2000     0.8400 ca         1 2P5      -0.063500
      6 C10          6.4670     0.1090     1.1230 ca         1 2P5      -0.063500
      7 C21         -7.9760     0.1460     0.5780 ca         1 2P5      -0.137000
      8 C23         -8.3370    -2.1330    -0.0190 ca         1 2P5      -0.137000
      9 C15         -1.9760    -1.2930    -1.8310 ca         1 2P5      -0.104000
     10 C7           3.7270    -0.0520     0.6900 ca         1 2P5      -0.178000
     11 C11          5.7180     1.2620     1.0010 ca         1 2P5      -0.178000
     12 C5           1.4870     6.1460     0.0560 cc         1 2P5       0.433700
     13 C12         -0.5090     0.8830    -0.8960 cp         1 2P5      -0.127500
     14 C9           5.8640    -1.1430     1.0340 ca         1 2P5      -0.174600
     15 C19         -6.1110    -1.2160    -0.1280 ca         1 2P5      -0.156600
     16 C22         -8.8650    -0.9130     0.4150 ca         1 2P5      -0.040300
     17 C13         -1.8760     0.8030    -0.5920 ca         1 2P5      -0.049300
     18 C3           1.9560     4.0240     0.1450 ca         1 2P5      -0.390800
     19 C6           4.3390     1.2020     0.7690 ca         1 2P5       0.186600
     20 C14         -2.5960    -0.2940    -1.0890 ca         1 2P5       0.042600
     21 C2           0.6560     4.2380    -0.3090 ca         1 2P5       0.585300
     22 C4           2.4130     2.7020     0.2450 ca         1 2P5       0.751200
     23 C1           0.3290     2.0430    -0.5020 cp         1 2P5       0.749500
     24 C27          8.1240    -1.9070    -0.6580 c6         1 2P5       0.058500
     25 C30          8.6240    -3.7340     0.8430 c6         1 2P5       0.058500
     26 C28          8.1320    -2.9150    -1.7980 c6         1 2P5       0.105900
     27 C29          8.6070    -4.6760    -0.3480 c6         1 2P5       0.105900
     28 C26         -2.5830     1.8080     0.2730 c3         1 2P5      -0.046800
     29 C32        -11.1290    -1.0950    -0.6030 c3         1 2P5      -0.083433
     30 C33        -10.7570    -1.8040     1.7750 c3         1 2P5      -0.083433
     31 C34        -10.7520     0.6040     1.1670 c3         1 2P5      -0.083433
     32 C31        -10.3590    -0.7930     0.6900 c3         1 2P5      -0.003700
     33 N4           2.4650     5.2730     0.3710 na         1 2P5      -0.243300
     34 N2          -0.1780     3.2510    -0.6480 nb         1 2P5      -0.666000
     35 N1           1.5650     1.7420    -0.0780 nb         1 2P5      -0.781000
     36 N3           0.3860     5.5730    -0.3580 nd         1 2P5      -0.636700
     37 N7           7.7750    -2.5820     0.5830 n          1 2P5      -0.476800
     38 N6          -3.9830    -0.3520    -0.8440 ns         1 2P5      -0.487100
     39 O2           6.2060    -3.2190     2.0850 o          1 2P5      -0.591100
     40 O1          -4.1440    -2.5310    -0.2350 o          1 2P5      -0.583100
     41 O3           8.9810    -4.0070    -1.5330 os         1 2P5      -0.398600
     42 H1          -0.1260    -2.0010    -2.6440 ha         1 2P5       0.136000
     43 H2           1.1730    -0.0760    -1.8140 ha         1 2P5       0.142000
     44 H3          -5.9730     0.8530     0.4780 ha         1 2P5       0.140000
     45 H4          -6.6150    -3.2510    -0.6000 ha         1 2P5       0.140000
     46 H5           3.9900    -2.1590     0.7870 ha         1 2P5       0.144500
     47 H6           7.5320     0.1960     1.2980 ha         1 2P5       0.144500
     48 H7          -8.3240     1.1080     0.9260 ha         1 2P5       0.134500
     49 H8          -8.9900    -2.9860    -0.1590 ha         1 2P5       0.134500
     50 H9          -2.5530    -2.1150    -2.2280 ha         1 2P5       0.151000
     51 H10          2.6670    -0.1350     0.5190 ha         1 2P5       0.152500
     52 H11          6.2090     2.2250     1.0850 ha         1 2P5       0.152500
     53 H12          1.6370     7.2110     0.1500 h5         1 2P5       0.068800
     54 H13          9.1090    -1.4430    -0.5530 h1         1 2P5       0.065950
     55 H14          7.4090    -1.1220    -0.8880 h1         1 2P5       0.065950
     56 H15          8.2890    -4.2490     1.7390 h1         1 2P5       0.065950
     57 H16          9.6430    -3.3760     1.0210 h1         1 2P5       0.065950
     58 H17          7.1030    -3.2600    -1.9770 h1         1 2P5       0.054450
     59 H18          8.4890    -2.4350    -2.7100 h1         1 2P5       0.054450
     60 H19          9.3190    -5.4870    -0.1920 h1         1 2P5       0.054450
     61 H20          7.6060    -5.1170    -0.4510 h1         1 2P5       0.054450
     62 H21         -3.1230     2.5500    -0.3200 hc         1 2P5       0.047700
     63 H22         -3.3090     1.3140     0.9200 hc         1 2P5       0.047700
     64 H23         -1.8950     2.3550     0.9100 hc         1 2P5       0.047700
     65 H24        -12.2040    -1.0200    -0.4280 hc         1 2P5       0.036922
     66 H25        -10.8690    -0.3850    -1.3900 hc         1 2P5       0.036922
     67 H26        -10.9260    -2.0990    -0.9800 hc         1 2P5       0.036922
     68 H27        -11.8310    -1.7480     1.9630 hc         1 2P5       0.036922
     69 H28        -10.5240    -2.8300     1.4900 hc         1 2P5       0.036922
     70 H29        -10.2420    -1.5920     2.7140 hc         1 2P5       0.036922
     71 H30        -10.2460     0.8800     2.0940 hc         1 2P5       0.036922
     72 H31        -10.5330     1.3690     0.4200 hc         1 2P5       0.036922
     73 H32        -11.8250     0.6350     1.3610 hc         1 2P5       0.036922
     74 H33          3.3780     5.5270     0.7160 hn         1 2P5       0.308700
     75 H35          4.2620     3.2220     0.8330 hn         1 2P5       0.433800
     76 H36         -4.5050     0.4970    -0.9950 hn         1 2P5       0.324500
     77 N5           3.6770     2.4210     0.6520 nu         1 2P5      -0.742300
     78 C25          6.6220    -2.4070     1.2670 c          1 2P5       0.688700
     79 C18         -4.6620    -1.4390    -0.3990 c          1 2P5       0.686700
@<TRIPOS>BOND
     1     1     2 ar  
     2     1     9 ar  
     3     1    42 1   
     4     2    13 ar  
     5     2    43 1   
     6     3     7 ar  
     7     3    15 ar  
     8     3    44 1   
     9     4     8 ar  
    10     4    15 ar  
    11     4    45 1   
    12     5    10 ar  
    13     5    14 ar  
    14     5    46 1   
    15     6    11 ar  
    16     6    14 ar  
    17     6    47 1   
    18     7    16 ar  
    19     7    48 1   
    20     8    16 ar  
    21     8    49 1   
    22     9    20 ar  
    23     9    50 1   
    24    10    19 ar  
    25    10    51 1   
    26    11    19 ar  
    27    11    52 1   
    28    12    33 1   
    29    12    36 2   
    30    12    53 1   
    31    13    17 ar  
    32    13    23 1   
    33    14    78 1   
    34    15    79 1   
    35    16    32 1   
    36    17    20 ar  
    37    17    28 1   
    38    18    21 ar  
    39    18    22 ar  
    40    18    33 1   
    41    19    77 1   
    42    20    38 1   
    43    21    34 ar  
    44    21    36 1   
    45    22    35 ar  
    46    22    77 1   
    47    23    34 ar  
    48    23    35 ar  
    49    24    26 1   
    50    24    37 1   
    51    24    54 1   
    52    24    55 1   
    53    25    27 1   
    54    25    37 1   
    55    25    56 1   
    56    25    57 1   
    57    26    41 1   
    58    26    58 1   
    59    26    59 1   
    60    27    41 1   
    61    27    60 1   
    62    27    61 1   
    63    28    62 1   
    64    28    63 1   
    65    28    64 1   
    66    29    32 1   
    67    29    65 1   
    68    29    66 1   
    69    29    67 1   
    70    30    32 1   
    71    30    68 1   
    72    30    69 1   
    73    30    70 1   
    74    31    32 1   
    75    31    71 1   
    76    31    72 1   
    77    31    73 1   
    78    33    74 1   
    79    37    78 1   
    80    38    76 1   
    81    38    79 1   
    82    39    78 2   
    83    40    79 2   
    84    75    77 1   
@<TRIPOS>SUBSTRUCTURE
     1 2P5         1 TEMP              0 ****  ****    0 ROOT
