@<TRIPOS>MOLECULE
2P5
   79    84     1     0     0
SMALL
No Charge or Current Charge


@<TRIPOS>ATOM
      1 C16         -0.7210    -0.9280    -2.7300 ca         1 2P5      -0.114000
      2 C17          0.0280     0.1070    -2.1630 ca         1 2P5      -0.083000
      3 C20         -6.6910    -0.0830    -0.0220 ca         1 2P5      -0.071000
      4 C24         -7.2310    -2.3660    -0.6260 ca         1 2P5      -0.071000
      5 C8           4.5440    -1.0500     1.3350 ca         1 2P5      -0.045500
      6 C10          6.5660     0.1660     0.7600 ca         1 2P5      -0.045500
      7 C21         -8.0070     0.1040     0.4370 ca         1 2P5      -0.119000
      8 C23         -8.5440    -2.1750    -0.1650 ca         1 2P5      -0.119000
      9 C15         -2.0490    -1.1280    -2.3370 ca         1 2P5      -0.086000
     10 C7           3.7870     0.1150     1.1230 ca         1 2P5      -0.160000
     11 C11          5.8020     1.3280     0.5520 ca         1 2P5      -0.160000
     12 C5           1.4330     6.2300     0.4650 cc         1 2P5       0.433700
     13 C12         -0.5290     0.9740    -1.1910 cp         1 2P5      -0.127500
     14 C9           5.9400    -1.0450     1.1320 ca         1 2P5      -0.174600
     15 C19         -6.2810    -1.3250    -0.5620 ca         1 2P5      -0.156600
     16 C22         -8.9620    -0.9390     0.3760 ca         1 2P5      -0.040300
     17 C13         -1.8760     0.7420    -0.7640 ca         1 2P5      -0.049300
     18 C3           1.8650     4.0730     0.2170 ca         1 2P5      -0.260200
     19 C6           4.4080     1.3080     0.7140 ca         1 2P5       0.325000
     20 C14         -2.6360    -0.3090    -1.3500 ca         1 2P5      -0.050000
     21 C2           0.5810     4.3280    -0.1740 ca         1 2P5       0.257000
     22 C4           2.3750     2.7710     0.1570 ca         1 2P5       0.422900
     23 C1           0.3230     2.0950    -0.6650 cp         1 2P5       0.223500
     24 C27          8.1090    -2.1180    -0.7440 c6         1 2P5       0.058500
     25 C30          8.9290    -3.5530     1.1150 c6         1 2P5       0.058500
     26 C28          8.1610    -3.3640    -1.6690 c6         1 2P5       0.129100
     27 C29          8.9340    -4.7560     0.1390 c6         1 2P5       0.129100
     28 C26         -2.5070     1.5870     0.3540 c3         1 2P5      -0.046800
     29 C32        -11.3980    -1.0280    -0.3090 c3         1 2P5      -0.083433
     30 C33        -10.7010    -1.8040     2.0010 c3         1 2P5      -0.083433
     31 C34        -10.7190     0.6450     1.4380 c3         1 2P5      -0.083433
     32 C31        -10.4240    -0.7730     0.8730 c3         1 2P5      -0.003700
     33 N4           2.4160     5.2600     0.6250 na         1 2P5      -0.293600
     34 N2          -0.2130     3.3400    -0.6230 nb         1 2P5      -0.140000
     35 N1           1.5910     1.7790    -0.3010 nb         1 2P5      -0.255000
     36 N3           0.2980     5.6870    -0.0230 nd         1 2P5      -0.636700
     37 N7           7.9560    -2.4970     0.6970 n          1 2P5      -0.409800
     38 N6          -3.9940    -0.4900    -0.9530 ns         1 2P5      -0.161000
     39 O2           6.3690    -3.1070     2.2410 o          1 2P5      -0.591100
     40 O1          -4.5360    -2.6520    -1.5300 o          1 2P5      -0.583100
     41 O3           9.1680    -4.2920    -1.2090 os         1 2P5      -0.445000
     42 H1          -0.2760    -1.5680    -3.4890 ha         1 2P5       0.118000
     43 H2           1.0520     0.2580    -2.5010 ha         1 2P5       0.124000
     44 H3          -6.0050     0.7560     0.0500 ha         1 2P5       0.122000
     45 H4          -6.9560    -3.3370    -1.0340 ha         1 2P5       0.122000
     46 H5           4.0410    -1.9620     1.6520 ha         1 2P5       0.126500
     47 H6           7.6470     0.2190     0.6470 ha         1 2P5       0.126500
     48 H7          -8.2600     1.0790     0.8410 ha         1 2P5       0.116500
     49 H8          -9.2400    -3.0070    -0.2350 ha         1 2P5       0.116500
     50 H9          -2.6120    -1.9190    -2.8230 ha         1 2P5       0.133000
     51 H10          2.7170     0.0840     1.2990 ha         1 2P5       0.134500
     52 H11          6.3010     2.2480     0.2620 ha         1 2P5       0.134500
     53 H12          1.5960     7.2720     0.7170 h5         1 2P5       0.068800
     54 H13          9.0340    -1.5360    -0.8660 h1         1 2P5       0.065950
     55 H14          7.2770    -1.4860    -1.0780 h1         1 2P5       0.065950
     56 H15          8.7090    -3.9080     2.1320 h1         1 2P5       0.065950
     57 H16          9.9360    -3.1140     1.1440 h1         1 2P5       0.065950
     58 H17          7.1820    -3.8660    -1.6760 h1         1 2P5       0.054450
     59 H18          8.3950    -3.0580    -2.6980 h1         1 2P5       0.054450
     60 H19          9.7250    -5.4650     0.4190 h1         1 2P5       0.054450
     61 H20          7.9690    -5.2830     0.1820 h1         1 2P5       0.054450
     62 H21         -3.0200     2.4640    -0.0580 hc         1 2P5       0.047700
     63 H22         -3.2310     1.0230     0.9530 hc         1 2P5       0.047700
     64 H23         -1.7560     1.9400     1.0700 hc         1 2P5       0.047700
     65 H24        -12.4400    -0.8850     0.0040 hc         1 2P5       0.036922
     66 H25        -11.1950    -0.3340    -1.1340 hc         1 2P5       0.036922
     67 H26        -11.3080    -2.0490    -0.6960 hc         1 2P5       0.036922
     68 H27        -11.7180    -1.6890     2.3960 hc         1 2P5       0.036922
     69 H28        -10.6020    -2.8340     1.6420 hc         1 2P5       0.036922
     70 H29         -9.9980    -1.6660     2.8310 hc         1 2P5       0.036922
     71 H30        -10.0750     0.8710     2.2970 hc         1 2P5       0.036922
     72 H31        -10.5650     1.4160     0.6730 hc         1 2P5       0.036922
     73 H32        -11.7590     0.7220     1.7780 hc         1 2P5       0.036922
     74 H33          3.3420     5.4250     1.0000 hn         1 2P5       0.359000
     75 H35          4.2740     3.3220     0.5250 hn         1 2P5       0.489000
     76 H36         -4.3980     0.3230    -0.5110 hn         1 2P5       0.158000
     77 N5           3.6910     2.4900     0.5070 nu         1 2P5      -0.935900
     78 C25          6.7350    -2.3080     1.3880 c          1 2P5       0.621700
     79 C18         -4.8690    -1.5660    -1.0690 c          1 2P5       0.619700
@<TRIPOS>BOND
     1     1     2 ar  
     2     1     9 ar  
     3     1    42 1   
     4     2    13 ar  
     5     2    43 1   
     6     3     7 ar  
     7     3    15 ar  
     8     3    44 1   
     9     4     8 ar  
    10     4    15 ar  
    11     4    45 1   
    12     5    10 ar  
    13     5    14 ar  
    14     5    46 1   
    15     6    11 ar  
    16     6    14 ar  
    17     6    47 1   
    18     7    16 ar  
    19     7    48 1   
    20     8    16 ar  
    21     8    49 1   
    22     9    20 ar  
    23     9    50 1   
    24    10    19 ar  
    25    10    51 1   
    26    11    19 ar  
    27    11    52 1   
    28    12    33 1   
    29    12    36 2   
    30    12    53 1   
    31    13    17 ar  
    32    13    23 1   
    33    14    78 1   
    34    15    79 1   
    35    16    32 1   
    36    17    20 ar  
    37    17    28 1   
    38    18    21 ar  
    39    18    22 ar  
    40    18    33 1   
    41    19    77 1   
    42    20    38 1   
    43    21    34 ar  
    44    21    36 1   
    45    22    35 ar  
    46    22    77 1   
    47    23    34 ar  
    48    23    35 ar  
    49    24    26 1   
    50    24    37 1   
    51    24    54 1   
    52    24    55 1   
    53    25    27 1   
    54    25    37 1   
    55    25    56 1   
    56    25    57 1   
    57    26    41 1   
    58    26    58 1   
    59    26    59 1   
    60    27    41 1   
    61    27    60 1   
    62    27    61 1   
    63    28    62 1   
    64    28    63 1   
    65    28    64 1   
    66    29    32 1   
    67    29    65 1   
    68    29    66 1   
    69    29    67 1   
    70    30    32 1   
    71    30    68 1   
    72    30    69 1   
    73    30    70 1   
    74    31    32 1   
    75    31    71 1   
    76    31    72 1   
    77    31    73 1   
    78    33    74 1   
    79    37    78 1   
    80    38    76 1   
    81    38    79 1   
    82    39    78 2   
    83    40    79 2   
    84    75    77 1   
@<TRIPOS>SUBSTRUCTURE
     1 2P5         1 TEMP              0 ****  ****    0 ROOT
