@<TRIPOS>MOLECULE
2P6
   50    52     1     0     0
SMALL
bcc


@<TRIPOS>ATOM
      1 C17         -1.5820     1.2380     0.3810 c3         1 2P6      -0.152400
      2 C18         -2.7590     0.4000    -0.0900 c3         1 2P6      -0.063400
      3 C19         -4.0650     0.8560     0.5640 c3         1 2P6      -0.033100
      4 C20         -5.2340     0.0140     0.1350 ca         1 2P6      -0.077300
      5 C21         -5.4660    -1.2270     0.7260 ca         1 2P6      -0.124000
      6 C25         -6.0850     0.4300    -0.8870 ca         1 2P6      -0.124000
      7 C22         -6.5180    -2.0310     0.3090 ca         1 2P6      -0.127500
      8 C24         -7.1400    -0.3700    -1.3070 ca         1 2P6      -0.127500
      9 C23         -7.3590    -1.6050    -0.7120 ca         1 2P6      -0.130000
     10 C15         -0.2650     0.8390    -0.2430 c          1 2P6       0.682100
     11 O16         -0.1470    -0.1360    -0.9760 o          1 2P6      -0.606100
     12 N14          0.7880     1.6270     0.0430 n          1 2P6      -0.471800
     13 C10          2.0980     1.3090    -0.4730 c5         1 2P6       0.039700
     14 C8           2.6560     0.0720     0.2240 c          1 2P6       0.667100
     15 O9           2.2120    -0.3250     1.2890 o          1 2P6      -0.580100
     16 C11          2.9210     2.5580    -0.1210 c5         1 2P6      -0.084400
     17 C12          2.2790     3.0390     1.1760 c5         1 2P6      -0.095400
     18 C13          0.7950     2.7540     0.9690 c5         1 2P6       0.110000
     19 C1           4.7990    -1.3810     1.6290 c1         1 2P6       0.210700
     20 N2           5.2230    -1.1750     2.6780 n1         1 2P6      -0.360800
     21 C3           4.3180    -1.6890     0.2800 c5         1 2P6       0.175800
     22 C4           5.4730    -2.0710    -0.6590 c5         1 2P6      -0.086400
     23 C5           4.9970    -1.5560    -2.0110 c5         1 2P6      -0.096400
     24 C6           4.3130    -0.2430    -1.6580 c5         1 2P6       0.109000
     25 N7           3.7090    -0.5320    -0.3590 n          1 2P6      -0.487800
     26 H17         -1.7660     2.2990     0.1790 hc         1 2P6       0.058200
     27 H17A        -1.4850     1.1640     1.4710 hc         1 2P6       0.058200
     28 H18         -2.8580     0.4650    -1.1760 hc         1 2P6       0.060200
     29 H18A        -2.5870    -0.6530     0.1440 hc         1 2P6       0.060200
     30 H19         -3.9570     0.8090     1.6510 hc         1 2P6       0.043200
     31 H19A        -4.2480     1.9040     0.3130 hc         1 2P6       0.043200
     32 H21         -4.8170    -1.5680     1.5240 ha         1 2P6       0.128500
     33 H25         -5.9240     1.3940    -1.3550 ha         1 2P6       0.128500
     34 H22         -6.6820    -2.9910     0.7810 ha         1 2P6       0.129000
     35 H24         -7.7920    -0.0260    -2.1010 ha         1 2P6       0.129000
     36 H23         -8.1800    -2.2300    -1.0390 ha         1 2P6       0.129000
     37 H10          2.0570     1.1530    -1.5520 h1         1 2P6       0.083700
     38 H11          3.9880     2.3570    -0.0250 hc         1 2P6       0.058200
     39 H11A         2.7940     3.2980    -0.9120 hc         1 2P6       0.058200
     40 H12          2.6600     2.4710     2.0260 hc         1 2P6       0.063200
     41 H12A         2.4680     4.0930     1.3710 hc         1 2P6       0.063200
     42 H13          0.2820     3.6150     0.5330 h1         1 2P6       0.047200
     43 H13A         0.2920     2.5040     1.9040 h1         1 2P6       0.047200
     44 H3           3.5970    -2.5070     0.3690 h1         1 2P6       0.091700
     45 H4A          5.6630    -3.1420    -0.6360 hc         1 2P6       0.064200
     46 H5           5.8140    -1.4190    -2.7170 hc         1 2P6       0.061700
     47 H5A          4.2770    -2.2460    -2.4550 hc         1 2P6       0.061700
     48 H6           5.0370     0.5720    -1.5790 h1         1 2P6       0.050700
     49 H6A          3.5590     0.0370    -2.3920 h1         1 2P6       0.050700
     50 H4           6.3880    -1.5570    -0.3610 hc         1 2P6       0.064200
@<TRIPOS>BOND
     1     1     2 1   
     2     1    10 1   
     3     1    26 1   
     4     1    27 1   
     5     2     3 1   
     6     2    28 1   
     7     2    29 1   
     8     3     4 1   
     9     3    30 1   
    10     3    31 1   
    11     4     5 ar  
    12     4     6 ar  
    13     5     7 ar  
    14     5    32 1   
    15     6     8 ar  
    16     6    33 1   
    17     7     9 ar  
    18     7    34 1   
    19     8     9 ar  
    20     8    35 1   
    21     9    36 1   
    22    10    11 2   
    23    10    12 1   
    24    12    13 1   
    25    12    18 1   
    26    13    14 1   
    27    13    16 1   
    28    13    37 1   
    29    14    15 2   
    30    14    25 1   
    31    16    17 1   
    32    16    38 1   
    33    16    39 1   
    34    17    18 1   
    35    17    40 1   
    36    17    41 1   
    37    18    42 1   
    38    18    43 1   
    39    19    20 3   
    40    19    21 1   
    41    21    22 1   
    42    21    25 1   
    43    21    44 1   
    44    22    23 1   
    45    22    45 1   
    46    22    50 1   
    47    23    24 1   
    48    23    46 1   
    49    23    47 1   
    50    24    25 1   
    51    24    48 1   
    52    24    49 1   
@<TRIPOS>SUBSTRUCTURE
     1 2P6         1 TEMP              0 ****  ****    0 ROOT
