@<TRIPOS>MOLECULE
2P6
   50    52     1     0     0
SMALL
No Charge or Current Charge


@<TRIPOS>ATOM
      1 C17         -1.7420     1.1390     0.3870 c3         1 2P6      -0.152400
      2 C18         -3.0070     0.3660    -0.0600 c3         1 2P6      -0.063400
      3 C19         -4.2980     0.8810     0.6100 c3         1 2P6      -0.033100
      4 C20         -5.5270     0.1070     0.1550 ca         1 2P6      -0.077300
      5 C21         -5.9390    -1.0460     0.8530 ca         1 2P6      -0.106000
      6 C25         -6.2580     0.5310    -0.9720 ca         1 2P6      -0.106000
      7 C22         -7.0710    -1.7640     0.4300 ca         1 2P6      -0.109500
      8 C24         -7.3900    -0.1880    -1.3950 ca         1 2P6      -0.109500
      9 C23         -7.7970    -1.3350    -0.6940 ca         1 2P6      -0.112000
     10 C15         -0.4140     0.6770    -0.2460 c          1 2P6       0.615100
     11 O16         -0.3680    -0.2790    -1.0110 o          1 2P6      -0.606100
     12 N14          0.7610     1.3850     0.0770 n          1 2P6      -0.404800
     13 C10          2.0940     1.0100    -0.4750 c5         1 2P6       0.039700
     14 C8           2.7370    -0.2510     0.2090 c          1 2P6       0.600100
     15 O9           2.2730    -0.8590     1.1680 o          1 2P6      -0.580100
     16 C11          2.9230     2.2950    -0.1530 c5         1 2P6      -0.084400
     17 C12          2.3230     2.7350     1.2060 c5         1 2P6      -0.095400
     18 C13          0.8020     2.5760     0.9550 c5         1 2P6       0.110000
     19 C1           5.2670    -1.2960     1.7110 c1         1 2P6       0.299900
     20 N2           5.5930    -1.0530     2.8050 n1         1 2P6      -0.450000
     21 C3           4.8980    -1.5880     0.3010 c5         1 2P6       0.175800
     22 C4           6.1320    -1.5240    -0.6430 c5         1 2P6      -0.086400
     23 C5           5.4550    -1.3970    -2.0260 c5         1 2P6      -0.096400
     24 C6           4.3760    -0.3180    -1.7550 c5         1 2P6       0.109000
     25 N7           3.9960    -0.5940    -0.3450 n          1 2P6      -0.420800
     26 H17         -1.8450     2.2160     0.2130 hc         1 2P6       0.058200
     27 H17A        -1.6190     1.1100     1.4760 hc         1 2P6       0.058200
     28 H18         -3.1130     0.4430    -1.1490 hc         1 2P6       0.060200
     29 H18A        -2.8830    -0.6990     0.1750 hc         1 2P6       0.060200
     30 H19         -4.1910     0.8110     1.7000 hc         1 2P6       0.043200
     31 H19A        -4.4200     1.9480     0.3830 hc         1 2P6       0.043200
     32 H21         -5.3810    -1.3860     1.7230 ha         1 2P6       0.110500
     33 H25         -5.9470     1.4170    -1.5220 ha         1 2P6       0.110500
     34 H22         -7.3850    -2.6530     0.9730 ha         1 2P6       0.111000
     35 H24         -7.9500     0.1450    -2.2660 ha         1 2P6       0.111000
     36 H23         -8.6730    -1.8910    -1.0210 ha         1 2P6       0.111000
     37 H10          2.0300     0.8350    -1.5550 h1         1 2P6       0.083700
     38 H11          4.0030     2.1230    -0.0980 hc         1 2P6       0.058200
     39 H11A         2.7590     3.0640    -0.9180 hc         1 2P6       0.058200
     40 H12          2.6590     2.0810     2.0200 hc         1 2P6       0.063200
     41 H12A         2.5960     3.7610     1.4800 hc         1 2P6       0.063200
     42 H13          0.3870     3.4510     0.4370 h1         1 2P6       0.047200
     43 H13A         0.2530     2.4300     1.8940 h1         1 2P6       0.047200
     44 H3           4.4400    -2.5860     0.2900 h1         1 2P6       0.091700
     45 H4A          6.7680    -2.4130    -0.5630 hc         1 2P6       0.064200
     46 H5           6.1520    -1.1010    -2.8190 hc         1 2P6       0.061700
     47 H5A          4.9960    -2.3450    -2.3310 hc         1 2P6       0.061700
     48 H6           4.7920     0.6930    -1.8540 h1         1 2P6       0.050700
     49 H6A          3.5340    -0.4220    -2.4520 h1         1 2P6       0.050700
     50 H4           6.7620    -0.6500    -0.4340 hc         1 2P6       0.064200
@<TRIPOS>BOND
     1     1     2 1   
     2     1    10 1   
     3     1    26 1   
     4     1    27 1   
     5     2     3 1   
     6     2    28 1   
     7     2    29 1   
     8     3     4 1   
     9     3    30 1   
    10     3    31 1   
    11     4     5 ar  
    12     4     6 ar  
    13     5     7 ar  
    14     5    32 1   
    15     6     8 ar  
    16     6    33 1   
    17     7     9 ar  
    18     7    34 1   
    19     8     9 ar  
    20     8    35 1   
    21     9    36 1   
    22    10    11 2   
    23    10    12 1   
    24    12    13 1   
    25    12    18 1   
    26    13    14 1   
    27    13    16 1   
    28    13    37 1   
    29    14    15 2   
    30    14    25 1   
    31    16    17 1   
    32    16    38 1   
    33    16    39 1   
    34    17    18 1   
    35    17    40 1   
    36    17    41 1   
    37    18    42 1   
    38    18    43 1   
    39    19    20 3   
    40    19    21 1   
    41    21    22 1   
    42    21    25 1   
    43    21    44 1   
    44    22    23 1   
    45    22    45 1   
    46    22    50 1   
    47    23    24 1   
    48    23    46 1   
    49    23    47 1   
    50    24    25 1   
    51    24    48 1   
    52    24    49 1   
@<TRIPOS>SUBSTRUCTURE
     1 2P6         1 TEMP              0 ****  ****    0 ROOT
