@<TRIPOS>MOLECULE
2P7
   36    38     1     0     0
SMALL
bcc


@<TRIPOS>ATOM
      1 C5           0.2470    -0.8380     0.4810 ca         1 2P7       0.146600
      2 C6           0.1870     0.1150    -0.5300 ca         1 2P7      -0.157000
      3 C7          -0.7700     1.1190    -0.5220 ca         1 2P7      -0.086000
      4 C2          -1.7140     1.1470     0.4910 ca         1 2P7       0.052900
      5 C3          -1.7140     0.1840     1.4920 ca         1 2P7      -0.114000
      6 C4          -0.7280    -0.7770     1.4730 ca         1 2P7       0.115900
      7 N8           1.2320    -1.8130     0.5300 nu         1 2P7      -0.652000
      8 C9           2.5470    -1.6200     0.1630 ca         1 2P7       0.217600
      9 C14          3.2440    -0.4120     0.3410 ca         1 2P7      -0.191600
     10 C13          4.5650    -0.3070    -0.0790 ca         1 2P7      -0.061000
     11 C12          5.2410    -1.3750    -0.6460 ca         1 2P7      -0.192000
     12 C11          4.5590    -2.5630    -0.8010 ca         1 2P7       0.152900
     13 C10          3.2380    -2.6790    -0.4210 ca         1 2P7       0.017900
     14 C15          2.6300     0.7200     1.1050 c          1 2P7       0.697700
     15 N17          2.6580     1.9090     0.5000 nj         1 2P7      -0.481800
     16 O16          2.1610     0.5620     2.2230 o          1 2P7      -0.576100
     17 C19          2.2350     3.6760    -0.5370 cy         1 2P7       0.108100
     18 C20          1.9560     3.1240     0.8820 cy         1 2P7       0.080500
     19 O21          1.1310     3.9330    -1.3480 oh         1 2P7      -0.583800
     20 I1          -3.1640     2.6650     0.5240 i          1 2P7      -0.167900
     21 C18          2.9070     2.3330    -0.8740 cy         1 2P7       0.080500
     22 F24         -0.6980    -1.6940     2.4490 f          1 2P7      -0.133900
     23 F23          2.6000    -3.8390    -0.6200 f          1 2P7      -0.127900
     24 F22          5.1590    -3.6230    -1.3490 f          1 2P7      -0.120900
     25 H3          -2.4410     0.1830     2.2930 ha         1 2P7       0.164000
     26 H6           0.8970     0.0720    -1.3460 ha         1 2P7       0.144000
     27 H8           0.9520    -2.7470     0.7820 hn         1 2P7       0.466800
     28 H7          -0.7570     1.8650    -1.3030 ha         1 2P7       0.158000
     29 H13          5.1010     0.6200     0.0770 ha         1 2P7       0.145000
     30 H12          6.2760    -1.2910    -0.9470 ha         1 2P7       0.159000
     31 H201         0.8970     2.9570     1.0970 h1         1 2P7       0.066450
     32 H202         2.4160     3.6680     1.7080 h1         1 2P7       0.066450
     33 H181         3.9610     2.3930    -1.1430 h1         1 2P7       0.066450
     34 H182         2.3770     1.7460    -1.6270 h1         1 2P7       0.066450
     35 H19          2.9410     4.5120    -0.5280 h1         1 2P7       0.052700
     36 H21          0.7320     4.7630    -1.0680 ho         1 2P7       0.417000
@<TRIPOS>BOND
     1     1     2 ar  
     2     1     6 ar  
     3     1     7 1   
     4     2     3 ar  
     5     2    26 1   
     6     3     4 ar  
     7     3    28 1   
     8     4     5 ar  
     9     4    20 1   
    10     5     6 ar  
    11     5    25 1   
    12     6    22 1   
    13     7     8 1   
    14     7    27 1   
    15     8     9 ar  
    16     8    13 ar  
    17     9    10 ar  
    18     9    14 1   
    19    10    11 ar  
    20    10    29 1   
    21    11    12 ar  
    22    11    30 1   
    23    12    13 ar  
    24    12    24 1   
    25    13    23 1   
    26    14    15 1   
    27    14    16 2   
    28    15    18 1   
    29    15    21 1   
    30    17    18 1   
    31    17    19 1   
    32    17    21 1   
    33    17    35 1   
    34    18    31 1   
    35    18    32 1   
    36    19    36 1   
    37    21    33 1   
    38    21    34 1   
@<TRIPOS>SUBSTRUCTURE
     1 2P7         1 TEMP              0 ****  ****    0 ROOT
