@<TRIPOS>MOLECULE
2P7
   36    38     1     0     0
SMALL
No Charge or Current Charge


@<TRIPOS>ATOM
      1 C5           0.1310    -0.8270     0.5470 ca         1 2P7       0.285000
      2 C6          -0.0060    -0.0450    -0.6140 ca         1 2P7      -0.139000
      3 C7          -1.1470     0.7570    -0.8040 ca         1 2P7      -0.068000
      4 C2          -2.1660     0.7700     0.1620 ca         1 2P7       0.190000
      5 C3          -2.0570    -0.0270     1.3120 ca         1 2P7      -0.096000
      6 C4          -0.9180    -0.8270     1.5020 ca         1 2P7       0.151000
      7 N8           1.2840    -1.6080     0.7220 nu         1 2P7      -0.984000
      8 C9           2.6030    -1.4880     0.2480 ca         1 2P7       0.356000
      9 C14          3.3510    -0.2760     0.3290 ca         1 2P7      -0.191600
     10 C13          4.6590    -0.2530    -0.2250 ca         1 2P7      -0.043000
     11 C12          5.2130    -1.3900    -0.8300 ca         1 2P7      -0.174000
     12 C11          4.4820    -2.5790    -0.8790 ca         1 2P7       0.188000
     13 C10          3.1900    -2.6360    -0.3390 ca         1 2P7       0.053000
     14 C15          2.8470     0.9670     1.0630 c          1 2P7       0.630700
     15 N17          3.4510     2.1850     0.5830 nj         1 2P7      -0.414800
     16 O16          2.1490     0.8070     2.0590 o          1 2P7      -0.576100
     17 C19          2.5420     3.7820    -0.3810 cy         1 2P7       0.131300
     18 C20          2.5370     3.2590     1.0990 cy         1 2P7       0.080500
     19 O21          1.3180     4.3220    -0.8720 oh         1 2P7      -0.646000
     20 I1          -3.9180     2.0060    -0.1320 i          1 2P7      -0.305000
     21 C18          2.8550     2.2980    -0.7840 cy         1 2P7       0.080500
     22 F24         -0.8310    -1.5930     2.6170 f          1 2P7      -0.169000
     23 F23          2.4980    -3.8040    -0.4040 f          1 2P7      -0.163000
     24 F22          5.0330    -3.6750    -1.4500 f          1 2P7      -0.156000
     25 H3          -2.8510    -0.0250     2.0520 ha         1 2P7       0.146000
     26 H6           0.7620    -0.0760    -1.3810 ha         1 2P7       0.126000
     27 H8           1.1190    -2.4690     1.2480 hn         1 2P7       0.522000
     28 H7          -1.2460     1.3640    -1.7010 ha         1 2P7       0.140000
     29 H13          5.2770     0.6420    -0.1640 ha         1 2P7       0.127000
     30 H12          6.2180    -1.3550    -1.2430 ha         1 2P7       0.141000
     31 H201         1.5350     2.9600     1.4310 h1         1 2P7       0.066450
     32 H202         3.0100     3.9330     1.8210 h1         1 2P7       0.066450
     33 H181         3.5810     2.1930    -1.5980 h1         1 2P7       0.066450
     34 H182         1.9570     1.7020    -0.9710 h1         1 2P7       0.066450
     35 H19          3.3740     4.4650    -0.5940 h1         1 2P7       0.052700
     36 H21          1.2230     5.2300    -0.5050 ho         1 2P7       0.456000
@<TRIPOS>BOND
     1     1     2 ar  
     2     1     6 ar  
     3     1     7 1   
     4     2     3 ar  
     5     2    26 1   
     6     3     4 ar  
     7     3    28 1   
     8     4     5 ar  
     9     4    20 1   
    10     5     6 ar  
    11     5    25 1   
    12     6    22 1   
    13     7     8 1   
    14     7    27 1   
    15     8     9 ar  
    16     8    13 ar  
    17     9    10 ar  
    18     9    14 1   
    19    10    11 ar  
    20    10    29 1   
    21    11    12 ar  
    22    11    30 1   
    23    12    13 ar  
    24    12    24 1   
    25    13    23 1   
    26    14    15 1   
    27    14    16 2   
    28    15    18 1   
    29    15    21 1   
    30    17    18 1   
    31    17    19 1   
    32    17    21 1   
    33    17    35 1   
    34    18    31 1   
    35    18    32 1   
    36    19    36 1   
    37    21    33 1   
    38    21    34 1   
@<TRIPOS>SUBSTRUCTURE
     1 2P7         1 TEMP              0 ****  ****    0 ROOT
