@<TRIPOS>MOLECULE
2P8
   53    55     1     0     0
SMALL
No Charge or Current Charge


@<TRIPOS>ATOM
      1 C17          1.7570    -0.1400     1.6980 c          1 2P8       0.663100
      2 O18          1.6940    -1.3600     1.7020 o          1 2P8      -0.638100
      3 N19          2.9500     0.5360     1.6830 ns         1 2P8      -0.513900
      4 C20          4.2680    -0.0940     1.6170 c3         1 2P8       0.160300
      5 C21          4.8260    -0.0540     0.2020 ca         1 2P8      -0.110300
      6 C22          4.4440    -1.0320    -0.7370 ca         1 2P8      -0.101500
      7 C23          4.9560    -0.9960    -2.0460 ca         1 2P8      -0.107500
      8 C24          5.8520     0.0190    -2.4240 ca         1 2P8      -0.114000
      9 C25          6.2350     0.9980    -1.4910 ca         1 2P8      -0.107500
     10 C26          5.7230     0.9630    -0.1820 ca         1 2P8      -0.101500
     11 N16          0.6070     0.6630     1.7240 n          1 2P8      -0.414800
     12 C12         -0.7630     0.0820     1.7380 c5         1 2P8       0.049700
     13 C10         -1.2440    -0.4590     0.3390 c          1 2P8       0.593100
     14 O11         -0.6100    -0.3960    -0.7100 o          1 2P8      -0.600100
     15 C13         -1.6030     1.3230     2.1760 c5         1 2P8      -0.084400
     16 C14         -0.8720     2.4770     1.4460 c5         1 2P8      -0.093400
     17 C15          0.6170     2.1430     1.7250 c5         1 2P8       0.105000
     18 C1          -3.5540    -0.0800    -1.8450 c3         1 2P8       0.159300
     19 O2          -4.4030    -0.4770    -2.9370 oh         1 2P8      -0.636000
     20 C3          -4.1660     1.1830    -1.1760 c3         1 2P8       0.131600
     21 O4          -4.3800     2.2070    -2.1620 oh         1 2P8      -0.645000
     22 C5          -3.3020    -1.2900    -0.8870 c5         1 2P8       0.077700
     23 C6          -4.6070    -1.9230    -0.3130 c5         1 2P8      -0.096400
     24 C7          -4.0610    -2.7070     0.8960 c5         1 2P8      -0.096400
     25 C8          -3.1400    -1.6490     1.5500 c5         1 2P8       0.103000
     26 N9          -2.5770    -0.9440     0.3690 n          1 2P8      -0.415800
     27 HN19         2.9000     1.5450     1.6810 hn         1 2P8       0.309500
     28 H20          4.9440     0.4390     2.2990 h1         1 2P8       0.061700
     29 H20A         4.2060    -1.1340     1.9640 h1         1 2P8       0.061700
     30 H22          3.7480    -1.8180    -0.4530 ha         1 2P8       0.116000
     31 H23          4.6570    -1.7530    -2.7670 ha         1 2P8       0.112000
     32 H24          6.2470     0.0470    -3.4370 ha         1 2P8       0.110000
     33 H25          6.9270     1.7850    -1.7830 ha         1 2P8       0.112000
     34 H26          6.0240     1.7260     0.5320 ha         1 2P8       0.116000
     35 H12         -0.8320    -0.7280     2.4730 h1         1 2P8       0.091700
     36 H13         -2.6640     1.2600     1.9110 hc         1 2P8       0.056200
     37 H13A        -1.5550     1.4590     3.2630 hc         1 2P8       0.056200
     38 H14         -1.0840     2.4650     0.3700 hc         1 2P8       0.059200
     39 H14A        -1.1550     3.4670     1.8220 hc         1 2P8       0.059200
     40 H15          0.9370     2.5250     2.7040 h1         1 2P8       0.044200
     41 H15A         1.2750     2.5610     0.9510 h1         1 2P8       0.044200
     42 H1          -2.5740     0.2240    -2.2400 h1         1 2P8       0.111700
     43 HO2         -4.7560     0.3700    -3.2950 ho         1 2P8       0.433000
     44 H3          -5.1160     0.9290    -0.6890 h1         1 2P8       0.018200
     45 H3A         -3.4810     1.5480    -0.4000 h1         1 2P8       0.018200
     46 HO4         -4.7230     2.9980    -1.6890 ho         1 2P8       0.438000
     47 H5          -2.7310    -2.0460    -1.4440 h1         1 2P8       0.085700
     48 H6          -5.3340    -1.1700     0.0100 hc         1 2P8       0.052200
     49 H6A         -5.1100    -2.5710    -1.0400 hc         1 2P8       0.052200
     50 H7          -4.8490    -3.0530     1.5740 hc         1 2P8       0.059700
     51 H7A         -3.4900    -3.5870     0.5760 hc         1 2P8       0.059700
     52 H8          -3.7120    -0.9540     2.1790 h1         1 2P8       0.047200
     53 H8A         -2.3750    -2.1340     2.1690 h1         1 2P8       0.047200
@<TRIPOS>BOND
     1     1     2 2   
     2     1     3 1   
     3     1    11 1   
     4     3     4 1   
     5     3    27 1   
     6     4     5 1   
     7     4    28 1   
     8     4    29 1   
     9     5     6 ar  
    10     5    10 ar  
    11     6     7 ar  
    12     6    30 1   
    13     7     8 ar  
    14     7    31 1   
    15     8     9 ar  
    16     8    32 1   
    17     9    10 ar  
    18     9    33 1   
    19    10    34 1   
    20    11    12 1   
    21    11    17 1   
    22    12    13 1   
    23    12    15 1   
    24    12    35 1   
    25    13    14 2   
    26    13    26 1   
    27    15    16 1   
    28    15    36 1   
    29    15    37 1   
    30    16    17 1   
    31    16    38 1   
    32    16    39 1   
    33    17    40 1   
    34    17    41 1   
    35    18    19 1   
    36    18    20 1   
    37    18    22 1   
    38    18    42 1   
    39    19    43 1   
    40    20    21 1   
    41    20    44 1   
    42    20    45 1   
    43    21    46 1   
    44    22    23 1   
    45    22    26 1   
    46    22    47 1   
    47    23    24 1   
    48    23    48 1   
    49    23    49 1   
    50    24    25 1   
    51    24    50 1   
    52    24    51 1   
    53    25    26 1   
    54    25    52 1   
    55    25    53 1   
@<TRIPOS>SUBSTRUCTURE
     1 2P8         1 TEMP              0 ****  ****    0 ROOT
