@<TRIPOS>MOLECULE
2P8
   53    55     1     0     0
SMALL
bcc


@<TRIPOS>ATOM
      1 C17          1.6130    -0.0840     1.9580 c          1 2P8       0.797100
      2 O18          1.4400    -1.2870     1.7800 o          1 2P8      -0.638100
      3 N19          2.8530     0.4750     1.9760 ns         1 2P8      -0.580900
      4 C20          4.0200    -0.2810     1.6180 c3         1 2P8       0.160300
      5 C21          4.2680    -0.4300     0.1310 ca         1 2P8      -0.110300
      6 C22          5.4390    -1.0600    -0.2900 ca         1 2P8      -0.119500
      7 C23          5.7110    -1.2280    -1.6390 ca         1 2P8      -0.125500
      8 C24          4.8130    -0.7660    -2.5940 ca         1 2P8      -0.132000
      9 C25          3.6460    -0.1380    -2.1830 ca         1 2P8      -0.125500
     10 C26          3.3750     0.0290    -0.8300 ca         1 2P8      -0.119500
     11 N16          0.5750     0.7600     2.1920 n          1 2P8      -0.481800
     12 C12         -0.7740     0.2860     2.0260 c5         1 2P8       0.049700
     13 C10         -1.0740     0.0490     0.5430 c          1 2P8       0.660100
     14 O11         -0.3310     0.4970    -0.3200 o          1 2P8      -0.600100
     15 C13         -1.6050     1.4510     2.5750 c5         1 2P8      -0.084400
     16 C14         -0.7930     2.6780     2.1710 c5         1 2P8      -0.093400
     17 C15          0.6610     2.2120     2.2680 c5         1 2P8       0.105000
     18 C1          -2.9520     0.4110    -1.9430 c3         1 2P8       0.136100
     19 O2          -3.3850     0.0520    -3.2370 oh         1 2P8      -0.573800
     20 C3          -3.9460     1.3070    -1.2200 c3         1 2P8       0.108400
     21 O4          -4.1250     2.4780    -1.9820 oh         1 2P8      -0.582800
     22 C5          -2.5930    -0.8600    -1.1520 c5         1 2P8       0.077700
     23 C6          -3.7480    -1.8670    -1.0340 c5         1 2P8      -0.096400
     24 C7          -3.5630    -2.4940     0.3420 c5         1 2P8      -0.096400
     25 C8          -3.0720    -1.3220     1.1760 c5         1 2P8       0.103000
     26 N9          -2.2080    -0.6070     0.2420 n          1 2P8      -0.482800
     27 HN19         2.9530     1.4750     2.0170 hn         1 2P8       0.309500
     28 H20          4.8820     0.2070     2.0760 h1         1 2P8       0.061700
     29 H20A         3.9570    -1.2710     2.0710 h1         1 2P8       0.061700
     30 H22          6.1470    -1.4210     0.4480 ha         1 2P8       0.134000
     31 H23          6.6260    -1.7180    -1.9470 ha         1 2P8       0.130000
     32 H24          5.0240    -0.8940    -3.6480 ha         1 2P8       0.128000
     33 H25          2.9390     0.2250    -2.9180 ha         1 2P8       0.130000
     34 H26          2.4570     0.5210    -0.5340 ha         1 2P8       0.134000
     35 H12         -0.9340    -0.6220     2.6090 h1         1 2P8       0.091700
     36 H13         -2.6260     1.4670     2.1940 hc         1 2P8       0.056200
     37 H13A        -1.6630     1.3650     3.6620 hc         1 2P8       0.056200
     38 H14         -1.0280     2.9730     1.1470 hc         1 2P8       0.059200
     39 H14A        -0.9870     3.5370     2.8110 hc         1 2P8       0.059200
     40 H15          1.1180     2.5210     3.2120 h1         1 2P8       0.044200
     41 H15A         1.2620     2.6280     1.4540 h1         1 2P8       0.044200
     42 H1          -2.0360     0.9850    -2.0930 h1         1 2P8       0.111700
     43 HO2         -4.2510    -0.3660    -3.1750 ho         1 2P8       0.394000
     44 H3          -4.8990     0.7800    -1.0700 h1         1 2P8       0.018200
     45 H3A         -3.5520     1.5340    -0.2220 h1         1 2P8       0.018200
     46 HO4         -4.7440     3.0450    -1.5130 ho         1 2P8       0.399000
     47 H5          -1.7510    -1.3340    -1.6650 h1         1 2P8       0.085700
     48 H6          -4.7200    -1.3670    -1.0710 hc         1 2P8       0.052200
     49 H6A         -3.7270    -2.5980    -1.8390 hc         1 2P8       0.052200
     50 H7          -4.4780    -2.9320     0.7390 hc         1 2P8       0.059700
     51 H7A         -2.7980    -3.2720     0.3110 hc         1 2P8       0.059700
     52 H8          -3.9090    -0.6950     1.4990 h1         1 2P8       0.047200
     53 H8A         -2.5340    -1.6390     2.0670 h1         1 2P8       0.047200
@<TRIPOS>BOND
     1     1     2 2   
     2     1     3 1   
     3     1    11 1   
     4     3     4 1   
     5     3    27 1   
     6     4     5 1   
     7     4    28 1   
     8     4    29 1   
     9     5     6 ar  
    10     5    10 ar  
    11     6     7 ar  
    12     6    30 1   
    13     7     8 ar  
    14     7    31 1   
    15     8     9 ar  
    16     8    32 1   
    17     9    10 ar  
    18     9    33 1   
    19    10    34 1   
    20    11    12 1   
    21    11    17 1   
    22    12    13 1   
    23    12    15 1   
    24    12    35 1   
    25    13    14 2   
    26    13    26 1   
    27    15    16 1   
    28    15    36 1   
    29    15    37 1   
    30    16    17 1   
    31    16    38 1   
    32    16    39 1   
    33    17    40 1   
    34    17    41 1   
    35    18    19 1   
    36    18    20 1   
    37    18    22 1   
    38    18    42 1   
    39    19    43 1   
    40    20    21 1   
    41    20    44 1   
    42    20    45 1   
    43    21    46 1   
    44    22    23 1   
    45    22    26 1   
    46    22    47 1   
    47    23    24 1   
    48    23    48 1   
    49    23    49 1   
    50    24    25 1   
    51    24    50 1   
    52    24    51 1   
    53    25    26 1   
    54    25    52 1   
    55    25    53 1   
@<TRIPOS>SUBSTRUCTURE
     1 2P8         1 TEMP              0 ****  ****    0 ROOT
