@<TRIPOS>MOLECULE
2P9
   57    61     1     0     0
SMALL
abcg2


@<TRIPOS>ATOM
      1 O01          6.7410    -5.4050     0.9990 o          1 2P9      -0.703000
      2 C02          5.6440    -5.0460     1.4590 c          1 2P9       0.629500
      3 C03          5.1610    -3.6650     1.0850 cc         1 2P9       0.209500
      4 N04          5.8570    -2.8640     0.3010 nd         1 2P9      -0.483800
      5 N05          5.1360    -1.7480     0.1890 na         1 2P9       0.184000
      6 C06          5.6650    -0.6650    -0.5410 ca         1 2P9       0.065800
      7 C07          5.6310     0.6160    -0.0080 ca         1 2P9      -0.115000
      8 C08          6.1390     1.6750    -0.7420 ca         1 2P9       0.126000
      9 CL2          6.0800     3.2590    -0.0740 cl         1 2P9      -0.190000
     10 C10          6.7030     1.4550    -1.9940 ca         1 2P9       0.095000
     11 CL           7.3440     2.7610    -2.9100 cl         1 2P9      -0.198000
     12 C12          6.7530     0.1670    -2.5070 ca         1 2P9      -0.095000
     13 C13          6.2310    -0.8920    -1.7880 ca         1 2P9      -0.091000
     14 C14          3.9670    -1.8110     0.8910 cd         1 2P9      -0.167000
     15 C15          2.9440    -0.7640     0.8950 ca         1 2P9       0.022000
     16 C16          2.5250    -0.1470    -0.2840 ca         1 2P9      -0.104500
     17 C17          1.5470     0.8320    -0.2530 ca         1 2P9      -0.094000
     18 C18          0.9620     1.2160     0.9500 ca         1 2P9      -0.136300
     19 C19         -0.1090     2.2670     0.9740 c3         1 2P9       0.137300
     20 N20         -1.4200     1.6520     0.8530 ns         1 2P9      -0.380900
     21 C21         -2.5470     2.3360     0.7920 cs         1 2P9       0.411000
     22 C22         -3.7680     1.5140     0.5930 ca         1 2P9      -0.143600
     23 C23         -3.9790     0.8950    -0.6350 ca         1 2P9      -0.083000
     24 C24         -5.1290     0.1680    -0.8880 ca         1 2P9      -0.100000
     25 C25         -6.1040     0.0290     0.1010 ca         1 2P9      -0.043500
     26 C26         -7.3270    -0.7170    -0.1350 cc         1 2P9       0.093500
     27 C27         -8.4170    -0.9780     0.6440 cd         1 2P9      -0.159000
     28 C28         -9.2940    -1.7550    -0.1540 cd         1 2P9      -0.226000
     29 C29         -8.6860    -1.9170    -1.3600 cc         1 2P9       0.141500
     30 C30         -9.1080    -2.6340    -2.6100 c          1 2P9       0.628500
     31 O31         -8.3100    -2.6150    -3.5610 o          1 2P9      -0.693500
     32 O32        -10.2270    -3.1730    -2.5460 o          1 2P9      -0.693500
     33 O33         -7.4910    -1.2860    -1.3430 os         1 2P9      -0.204000
     34 C34         -5.8880     0.6250     1.3450 ca         1 2P9      -0.120000
     35 C35         -4.7390     1.3550     1.5780 ca         1 2P9       0.160000
     36 CL3         -4.5100     2.0500     3.1450 cl         1 2P9      -0.207000
     37 S37         -2.6390     3.9900     0.8500 s          1 2P9      -0.606400
     38 C38          1.3670     0.5890     2.1230 ca         1 2P9      -0.094000
     39 C39          2.3490    -0.3890     2.0990 ca         1 2P9      -0.104500
     40 C40          3.9620    -3.0470     1.4890 cc         1 2P9      -0.142000
     41 O41          4.8770    -5.6880     2.2020 o          1 2P9      -0.703000
     42 H2           5.2230     0.7990     0.9770 ha         1 2P9       0.146000
     43 H3           7.1920    -0.0070    -3.4790 ha         1 2P9       0.126000
     44 H4           6.2630    -1.8910    -2.2000 ha         1 2P9       0.153000
     45 H5           2.9510    -0.4390    -1.2350 ha         1 2P9       0.125500
     46 H6           1.2360     1.3030    -1.1770 ha         1 2P9       0.112500
     47 H7          -0.0720     2.8450     1.9010 h1         1 2P9       0.071700
     48 H8           0.0230     2.9770     0.1540 h1         1 2P9       0.071700
     49 H9          -1.4660     0.6430     0.8210 hn         1 2P9       0.329500
     50 H10         -3.2360     1.0000    -1.4140 ha         1 2P9       0.116000
     51 H11         -5.2560    -0.2850    -1.8610 ha         1 2P9       0.149000
     52 H12         -8.5770    -0.6550     1.6610 ha         1 2P9       0.115000
     53 H13        -10.2580    -2.1440     0.1310 ha         1 2P9       0.139000
     54 H15         -6.6170     0.5190     2.1380 ha         1 2P9       0.129000
     55 H16          0.9230     0.8750     3.0700 ha         1 2P9       0.112500
     56 H17          2.6700    -0.8510     3.0230 ha         1 2P9       0.125500
     57 H18          3.1810    -3.4630     2.1020 ha         1 2P9       0.154000
@<TRIPOS>BOND
     1     1     2 1   
     2     2     3 1   
     3     2    41 1   
     4     3     4 2   
     5     3    40 1   
     6     4     5 1   
     7     5     6 1   
     8     5    14 1   
     9     6     7 ar  
    10     6    13 ar  
    11     7     8 ar  
    12     7    42 1   
    13     8     9 1   
    14     8    10 ar  
    15    10    11 1   
    16    10    12 ar  
    17    12    13 ar  
    18    12    43 1   
    19    13    44 1   
    20    14    15 1   
    21    14    40 2   
    22    15    16 ar  
    23    15    39 ar  
    24    16    17 ar  
    25    16    45 1   
    26    17    18 ar  
    27    17    46 1   
    28    18    19 1   
    29    18    38 ar  
    30    19    20 1   
    31    19    47 1   
    32    19    48 1   
    33    20    21 1   
    34    20    49 1   
    35    21    22 1   
    36    21    37 2   
    37    22    23 ar  
    38    22    35 ar  
    39    23    24 ar  
    40    23    50 1   
    41    24    25 ar  
    42    24    51 1   
    43    25    26 1   
    44    25    34 ar  
    45    26    27 2   
    46    26    33 1   
    47    27    28 1   
    48    27    52 1   
    49    28    29 2   
    50    28    53 1   
    51    29    30 1   
    52    29    33 1   
    53    30    31 1   
    54    30    32 1   
    55    34    35 ar  
    56    34    54 1   
    57    35    36 1   
    58    38    39 ar  
    59    38    55 1   
    60    39    56 1   
    61    40    57 1   
@<TRIPOS>SUBSTRUCTURE
     1 2P9         1 TEMP              0 ****  ****    0 ROOT
