@<TRIPOS>MOLECULE
2P9
   57    61     1     0     0
SMALL
No Charge or Current Charge


@<TRIPOS>ATOM
      1 O01          6.9710    -5.3800     1.4400 o          1 2P9      -0.703000
      2 C02          6.0130    -4.7880     1.9300 c          1 2P9       0.629500
      3 C03          5.4600    -3.5600     1.2310 cc         1 2P9       0.209500
      4 N04          5.9240    -3.0240     0.1070 nd         1 2P9      -0.483800
      5 N05          5.0600    -1.9610    -0.0770 na         1 2P9       0.184000
      6 C06          5.2890    -0.9130    -0.9680 ca         1 2P9       0.065800
      7 C07          5.7580     0.3320    -0.5000 ca         1 2P9      -0.115000
      8 C08          5.9880     1.3860    -1.4000 ca         1 2P9       0.126000
      9 Cl2          6.5570     2.9330    -0.7730 cl         1 2P9      -0.190000
     10 C10          5.7620     1.1960    -2.7800 ca         1 2P9       0.095000
     11 Cl           6.0400     2.4990    -3.9370 cl         1 2P9      -0.198000
     12 C12          5.3110    -0.0490    -3.2500 ca         1 2P9      -0.095000
     13 C13          5.0790    -1.1020    -2.3480 ca         1 2P9      -0.091000
     14 C14          4.0700    -1.8030     0.9160 cd         1 2P9      -0.167000
     15 C15          3.0270    -0.7590     1.1050 ca         1 2P9       0.022000
     16 C16          2.5770     0.0770     0.0560 ca         1 2P9      -0.104500
     17 C17          1.5880     1.0500     0.2790 ca         1 2P9      -0.094000
     18 C18          1.0180     1.2070     1.5530 ca         1 2P9      -0.136300
     19 C19         -0.0570     2.2570     1.7900 c3         1 2P9       0.137300
     20 N20         -1.3790     1.7250     1.4790 ns         1 2P9      -0.380900
     21 C21         -2.5700     2.3900     1.6010 cs         1 2P9       0.411000
     22 C22         -3.7560     1.6170     1.0610 ca         1 2P9      -0.143600
     23 C23         -3.5870     0.7670    -0.0590 ca         1 2P9      -0.083000
     24 C24         -4.6680     0.0500    -0.5970 ca         1 2P9      -0.100000
     25 C25         -5.9530     0.1510    -0.0340 ca         1 2P9      -0.043500
     26 C26         -7.0700    -0.6090    -0.6120 cc         1 2P9       0.093500
     27 C27         -8.3870    -0.5180    -0.2500 cd         1 2P9      -0.159000
     28 C28         -9.0830    -1.4230    -1.0800 cd         1 2P9      -0.226000
     29 C29         -8.1560    -2.0190    -1.9080 cc         1 2P9       0.141500
     30 C30         -8.4240    -3.0530    -2.9650 c          1 2P9       0.628500
     31 O31         -7.4860    -3.4870    -3.6220 o          1 2P9      -0.693500
     32 O32         -9.5740    -3.4380    -3.1430 o          1 2P9      -0.693500
     33 O33         -6.8970    -1.5180    -1.6290 os         1 2P9      -0.204000
     34 C34         -6.1260     0.9830     1.0900 ca         1 2P9      -0.120000
     35 C35         -5.0500     1.7070     1.6330 ca         1 2P9       0.160000
     36 Cl3         -5.3780     2.6320     3.1000 cl         1 2P9      -0.207000
     37 S37         -2.6280     4.0150     2.0230 s          1 2P9      -0.606400
     38 C38          1.4370     0.3680     2.5980 ca         1 2P9      -0.094000
     39 C39          2.4250    -0.6050     2.3740 ca         1 2P9      -0.104500
     40 C40          4.3670    -2.8360     1.7620 cc         1 2P9      -0.142000
     41 O41          5.4930    -5.1690     2.9730 o          1 2P9      -0.703000
     42 H2           5.9340     0.4820     0.5620 ha         1 2P9       0.146000
     43 H3           5.1410    -0.1970    -4.3140 ha         1 2P9       0.126000
     44 H4           4.7300    -2.0650    -2.7160 ha         1 2P9       0.153000
     45 H5           2.9540    -0.0340    -0.9530 ha         1 2P9       0.125500
     46 H6           1.2590     1.6770    -0.5470 ha         1 2P9       0.112500
     47 H7          -0.0380     2.5820     2.8380 h1         1 2P9       0.071700
     48 H8           0.1340     3.1340     1.1580 h1         1 2P9       0.071700
     49 H9          -1.4270     0.7610     1.1710 hn         1 2P9       0.329500
     50 H10         -2.6190     0.6770    -0.5470 ha         1 2P9       0.116000
     51 H11         -4.5010    -0.5830    -1.4660 ha         1 2P9       0.149000
     52 H12         -8.8200     0.1190     0.5140 ha         1 2P9       0.115000
     53 H13        -10.1500    -1.6190    -1.0750 ha         1 2P9       0.139000
     54 H15         -7.0970     1.0680     1.5680 ha         1 2P9       0.129000
     55 H16          0.9990     0.4690     3.5890 ha         1 2P9       0.112500
     56 H17          2.7340    -1.2280     3.2090 ha         1 2P9       0.125500
     57 H18          3.8570    -3.0990     2.6820 ha         1 2P9       0.154000
@<TRIPOS>BOND
     1     1     2 1   
     2     2     3 1   
     3     2    41 1   
     4     3     4 2   
     5     3    40 1   
     6     4     5 1   
     7     5     6 1   
     8     5    14 1   
     9     6     7 ar  
    10     6    13 ar  
    11     7     8 ar  
    12     7    42 1   
    13     8     9 1   
    14     8    10 ar  
    15    10    11 1   
    16    10    12 ar  
    17    12    13 ar  
    18    12    43 1   
    19    13    44 1   
    20    14    15 1   
    21    14    40 2   
    22    15    16 ar  
    23    15    39 ar  
    24    16    17 ar  
    25    16    45 1   
    26    17    18 ar  
    27    17    46 1   
    28    18    19 1   
    29    18    38 ar  
    30    19    20 1   
    31    19    47 1   
    32    19    48 1   
    33    20    21 1   
    34    20    49 1   
    35    21    22 1   
    36    21    37 2   
    37    22    23 ar  
    38    22    35 ar  
    39    23    24 ar  
    40    23    50 1   
    41    24    25 ar  
    42    24    51 1   
    43    25    26 1   
    44    25    34 ar  
    45    26    27 2   
    46    26    33 1   
    47    27    28 1   
    48    27    52 1   
    49    28    29 2   
    50    28    53 1   
    51    29    30 1   
    52    29    33 1   
    53    30    31 1   
    54    30    32 1   
    55    34    35 ar  
    56    34    54 1   
    57    35    36 1   
    58    38    39 ar  
    59    38    55 1   
    60    39    56 1   
    61    40    57 1   
@<TRIPOS>SUBSTRUCTURE
     1 2P9         1 TEMP              0 ****  ****    0 ROOT
