@<TRIPOS>MOLECULE
2PA
    9     8     1     0     0
SMALL
abcg2


@<TRIPOS>ATOM
      1 N4           1.0250    -0.5260     1.1580 n8         1 2PA      -1.086300
      2 N5           0.3720    -0.7460    -1.3320 n8         1 2PA      -1.086300
      3 O1           0.2290     1.6130    -0.0310 o          1 2PA      -0.843000
      4 P2          -0.0990     0.1410     0.0530 p5         1 2PA       1.260600
      5 O3          -1.5290    -0.2590     0.3330 o          1 2PA      -0.843000
      6 HN41         0.8340    -1.4860     1.4130 hn         1 2PA       0.399500
      7 HN42         1.1080     0.0180     2.0060 hn         1 2PA       0.399500
      8 HN51        -0.3010    -0.6820    -2.0840 hn         1 2PA       0.399500
      9 HN52         1.2820    -0.4970    -1.6960 hn         1 2PA       0.399500
@<TRIPOS>BOND
     1     1     4 1   
     2     1     6 1   
     3     1     7 1   
     4     2     4 1   
     5     2     8 1   
     6     2     9 1   
     7     3     4 1   
     8     4     5 1   
@<TRIPOS>SUBSTRUCTURE
     1 2PA         1 TEMP              0 ****  ****    0 ROOT
