@<TRIPOS>MOLECULE
2PA
    9     8     1     0     0
SMALL
No Charge or Current Charge


@<TRIPOS>ATOM
      1 N4           0.9220    -0.8010     1.0840 n8         1 2PA      -1.086300
      2 N5           0.6590    -0.6430    -1.2870 n8         1 2PA      -1.086300
      3 O1           0.4420     1.4000     0.0780 o          1 2PA      -0.843000
      4 P2           0.0660    -0.0180     0.0250 p5         1 2PA       1.260600
      5 O3          -1.3330    -0.4420     0.1530 o          1 2PA      -0.843000
      6 HN41         0.1690    -1.1730     1.6540 hn         1 2PA       0.399500
      7 HN42         1.2880    -0.0120     1.6070 hn         1 2PA       0.399500
      8 HN51        -0.2060    -0.9480    -1.7230 hn         1 2PA       0.399500
      9 HN52         0.9130     0.2130    -1.7700 hn         1 2PA       0.399500
@<TRIPOS>BOND
     1     1     4 1   
     2     1     6 1   
     3     1     7 1   
     4     2     4 1   
     5     2     8 1   
     6     2     9 1   
     7     3     4 1   
     8     4     5 1   
@<TRIPOS>SUBSTRUCTURE
     1 2PA         1 TEMP              0 ****  ****    0 ROOT
