@<TRIPOS>MOLECULE
2PC
   15    15     1     0     0
SMALL
No Charge or Current Charge


@<TRIPOS>ATOM
      1 N1          -0.7910    -1.1220    -0.4130 nu         1 2PC      -0.310700
      2 C2          -0.0280     0.0600    -0.3230 ce         1 2PC       0.281300
      3 C3          -0.8820     1.2580     0.0680 c5         1 2PC      -0.180700
      4 C4          -2.2890     0.6720    -0.2290 c5         1 2PC      -0.107400
      5 C5          -2.1180    -0.8200     0.1730 c5         1 2PC       0.010600
      6 C6           1.4120     0.0360     0.1740 c          1 2PC       0.616700
      7 O7           1.9930    -1.0430     0.2010 o          1 2PC      -0.620000
      8 O8           1.9450     1.0860     0.5160 o          1 2PC      -0.620000
      9 HN1         -0.2900    -1.9830    -0.1990 hn         1 2PC       0.396000
     10 H31         -0.7450     1.5210     1.1240 hc         1 2PC       0.114200
     11 H32         -0.6580     2.1420    -0.5380 hc         1 2PC       0.114200
     12 H41         -2.5400     0.7640    -1.2940 hc         1 2PC       0.073700
     13 H42         -3.0860     1.1730     0.3340 hc         1 2PC       0.073700
     14 H51         -2.9170    -1.4490    -0.2430 h1         1 2PC       0.079700
     15 H52         -2.1180    -0.9480     1.2660 h1         1 2PC       0.079700
@<TRIPOS>BOND
     1     1     2 2   
     2     1     5 1   
     3     1     9 1   
     4     2     3 1   
     5     2     6 1   
     6     3     4 1   
     7     3    10 1   
     8     3    11 1   
     9     4     5 1   
    10     4    12 1   
    11     4    13 1   
    12     5    14 1   
    13     5    15 1   
    14     6     7 1   
    15     6     8 1   
@<TRIPOS>SUBSTRUCTURE
     1 2PC         1 TEMP              0 ****  ****    0 ROOT
