@<TRIPOS>MOLECULE
2PC
   15    15     1     0     0
SMALL
abcg2


@<TRIPOS>ATOM
      1 N1          -0.7230    -1.0180     0.0420 nu         1 2PC      -0.310700
      2 C2          -0.0320     0.0530     0.0580 ce         1 2PC       0.281300
      3 C3          -0.9040     1.2480     0.1140 c5         1 2PC      -0.180700
      4 C4          -2.3070     0.6820    -0.1560 c5         1 2PC      -0.107400
      5 C5          -2.1710    -0.8250     0.0930 c5         1 2PC       0.010600
      6 C6           1.5040     0.0170     0.0670 c          1 2PC       0.616700
      7 O7           1.9930    -1.1150    -0.0190 o          1 2PC      -0.620000
      8 O8           2.0310     1.1280     0.1650 o          1 2PC      -0.620000
      9 HN1         -0.2800    -1.9320     0.0380 hn         1 2PC       0.396000
     10 H31         -0.8050     1.6920     1.1090 hc         1 2PC       0.114200
     11 H32         -0.5860     2.0090    -0.5970 hc         1 2PC       0.114200
     12 H41         -2.5910     0.8640    -1.1910 hc         1 2PC       0.073700
     13 H42         -3.0670     1.1270     0.4810 hc         1 2PC       0.073700
     14 H51         -2.6490    -1.4440    -0.6630 h1         1 2PC       0.079700
     15 H52         -2.5250    -1.1390     1.0750 h1         1 2PC       0.079700
@<TRIPOS>BOND
     1     1     2 2   
     2     1     5 1   
     3     1     9 1   
     4     2     3 1   
     5     2     6 1   
     6     3     4 1   
     7     3    10 1   
     8     3    11 1   
     9     4     5 1   
    10     4    12 1   
    11     4    13 1   
    12     5    14 1   
    13     5    15 1   
    14     6     7 1   
    15     6     8 1   
@<TRIPOS>SUBSTRUCTURE
     1 2PC         1 TEMP              0 ****  ****    0 ROOT
