@<TRIPOS>MOLECULE
2PD
   57    60     1     0     0
SMALL
No Charge or Current Charge


@<TRIPOS>ATOM
      1 O30          3.4270    -3.1450     1.0270 o          1 2PD      -0.533000
      2 S33          2.7200    -2.0330     0.3910 sy         1 2PD       1.204600
      3 O29          2.1100    -2.1670    -0.9320 o          1 2PD      -0.533000
      4 C12          3.7100    -0.5640     0.4490 ca         1 2PD      -0.296500
      5 C8           4.9970    -0.4930    -0.1210 ca         1 2PD      -0.038000
      6 C11          5.7300     0.7060    -0.0450 ca         1 2PD       0.118100
      7 O32          6.9860     0.7350    -0.6180 os         1 2PD      -0.338100
      8 C20          7.8150     1.9110    -0.5940 c3         1 2PD       0.148900
      9 C7           5.1650     1.8280     0.6070 ca         1 2PD      -0.144000
     10 N26          1.4310    -1.7290     1.3800 nu         1 2PD      -0.908300
     11 C16          0.9960    -0.4410     1.2200 ce         1 2PD       0.762500
     12 N24          1.8700     0.4180     1.6600 nf         1 2PD      -0.635100
     13 C10          3.1550     0.5380     1.0940 ca         1 2PD       0.204400
     14 C6           3.8790     1.7390     1.1760 ca         1 2PD      -0.066000
     15 C14         -0.3650    -0.1700     0.7150 cc         1 2PD      -0.335800
     16 C15         -0.8770     1.1240     0.5500 cd         1 2PD       0.160500
     17 O31         -0.1240     2.2250     0.8030 oh         1 2PD      -0.459100
     18 C17         -1.2450    -1.3220     0.3520 c          1 2PD       0.560200
     19 O28         -0.9140    -2.4980     0.4490 o          1 2PD      -0.566000
     20 N27         -2.5290    -0.9720    -0.1310 n          1 2PD      -0.107800
     21 C22         -3.4770    -2.0340    -0.5450 c3         1 2PD       0.112000
     22 C21         -4.4680    -2.4260     0.5770 c3         1 2PD      -0.095400
     23 C23         -5.5450    -3.4620     0.1550 c3         1 2PD      -0.055700
     24 C19         -4.9360    -4.8170    -0.2780 c3         1 2PD      -0.090100
     25 C18         -6.5860    -3.6650     1.2800 c3         1 2PD      -0.090100
     26 N25         -3.0190     0.2990    -0.2740 nc         1 2PD      -0.380300
     27 C13         -2.2430     1.3170     0.0660 cd         1 2PD       0.320200
     28 C9          -2.8340     2.6590    -0.1050 ca         1 2PD      -0.142900
     29 C4          -3.4010     3.0370    -1.3410 ca         1 2PD      -0.088500
     30 C2          -3.9870     4.3050    -1.4980 ca         1 2PD      -0.108500
     31 C5          -2.9000     3.5580     0.9830 ca         1 2PD      -0.088500
     32 C3          -3.4870     4.8260     0.8230 ca         1 2PD      -0.108500
     33 C1          -4.0260     5.2020    -0.4180 ca         1 2PD      -0.091000
     34 H8           5.4300    -1.3560    -0.6230 ha         1 2PD       0.144000
     35 H20          7.3210     2.7470    -1.1050 h1         1 2PD       0.042367
     36 H20A         8.0380     2.2100     0.4380 h1         1 2PD       0.042367
     37 H20B         8.7660     1.7160    -1.1040 h1         1 2PD       0.042367
     38 H7           5.7030     2.7690     0.6840 ha         1 2PD       0.119000
     39 HN26         0.7420    -2.3760     1.0220 hn         1 2PD       0.564000
     40 H6           3.4430     2.5980     1.6790 ha         1 2PD       0.128000
     41 HO31        -0.6390     3.0120     0.5260 ho         1 2PD       0.489000
     42 H22         -4.0460    -1.6750    -1.4120 h1         1 2PD       0.075200
     43 H22A        -2.9190    -2.9180    -0.8780 h1         1 2PD       0.075200
     44 H21         -3.9030    -2.8150     1.4320 hc         1 2PD       0.055700
     45 H21A        -4.9730    -1.5150     0.9230 hc         1 2PD       0.055700
     46 H23         -6.0820    -3.0510    -0.7100 hc         1 2PD       0.043700
     47 H19         -4.3280    -5.2480     0.5270 hc         1 2PD       0.035700
     48 H19A        -5.7270    -5.5340    -0.5290 hc         1 2PD       0.035700
     49 H19B        -4.3040    -4.7040    -1.1670 hc         1 2PD       0.035700
     50 H18         -7.0600    -2.7130     1.5470 hc         1 2PD       0.035700
     51 H18A        -7.3750    -4.3550     0.9590 hc         1 2PD       0.035700
     52 H18B        -6.1130    -4.0780     2.1800 hc         1 2PD       0.035700
     53 H4          -3.3810     2.3490    -2.1850 ha         1 2PD       0.125000
     54 H2          -4.4130     4.5910    -2.4580 ha         1 2PD       0.122000
     55 H5          -2.5110     3.2730     1.9590 ha         1 2PD       0.125000
     56 H3          -3.5310     5.5140     1.6650 ha         1 2PD       0.122000
     57 H1          -4.4810     6.1820    -0.5400 ha         1 2PD       0.120000
@<TRIPOS>BOND
     1     1     2 2   
     2     2     3 2   
     3     2     4 1   
     4     2    10 1   
     5     4     5 ar  
     6     4    13 ar  
     7     5     6 ar  
     8     5    34 1   
     9     6     7 1   
    10     6     9 ar  
    11     7     8 1   
    12     8    35 1   
    13     8    36 1   
    14     8    37 1   
    15     9    14 ar  
    16     9    38 1   
    17    10    11 1   
    18    10    39 1   
    19    11    12 2   
    20    11    15 1   
    21    12    13 1   
    22    13    14 ar  
    23    14    40 1   
    24    15    16 2   
    25    15    18 1   
    26    16    17 1   
    27    16    27 1   
    28    17    41 1   
    29    18    19 2   
    30    18    20 1   
    31    20    21 1   
    32    20    26 1   
    33    21    22 1   
    34    21    42 1   
    35    21    43 1   
    36    22    23 1   
    37    22    44 1   
    38    22    45 1   
    39    23    24 1   
    40    23    25 1   
    41    23    46 1   
    42    24    47 1   
    43    24    48 1   
    44    24    49 1   
    45    25    50 1   
    46    25    51 1   
    47    25    52 1   
    48    26    27 2   
    49    27    28 1   
    50    28    29 ar  
    51    28    31 ar  
    52    29    30 ar  
    53    29    53 1   
    54    30    33 ar  
    55    30    54 1   
    56    31    32 ar  
    57    31    55 1   
    58    32    33 ar  
    59    32    56 1   
    60    33    57 1   
@<TRIPOS>SUBSTRUCTURE
     1 2PD         1 TEMP              0 ****  ****    0 ROOT
