@<TRIPOS>MOLECULE
2PD
   57    60     1     0     0
SMALL
bcc


@<TRIPOS>ATOM
      1 O30          3.2470    -2.9600    -1.1400 o          1 2PD      -0.603800
      2 S33          2.8570    -1.5820    -1.3730 sy         1 2PD       1.346200
      3 O29          2.8590    -1.0940    -2.7410 o          1 2PD      -0.603800
      4 C12          3.7500    -0.4630    -0.3770 ca         1 2PD      -0.296500
      5 C8           5.1010    -0.6620    -0.1610 ca         1 2PD      -0.056000
      6 C11          5.8220     0.2980     0.5430 ca         1 2PD       0.118100
      7 O32          7.1260     0.0480     0.7250 os         1 2PD      -0.314900
      8 C20          7.9070     0.9910     1.4370 c3         1 2PD       0.125700
      9 C7           5.1640     1.4440     1.0030 ca         1 2PD      -0.162000
     10 N26          1.3740    -1.3560    -0.6830 nu         1 2PD      -0.853100
     11 C16          0.9170    -0.0910    -0.3720 ce         1 2PD       0.762500
     12 N24          1.6990     0.8690    -0.0370 nf         1 2PD      -0.635100
     13 C10          3.0550     0.6620     0.0900 ca         1 2PD       0.204400
     14 C6           3.8120     1.6150     0.7760 ca         1 2PD      -0.084000
     15 C14         -0.5440     0.1010    -0.3870 cc         1 2PD      -0.335800
     16 C15         -1.1230     1.3540    -0.3840 cd         1 2PD       0.160500
     17 O31         -0.3970     2.4500    -0.4450 oh         1 2PD      -0.420100
     18 C17         -1.4160    -1.0530    -0.4240 c          1 2PD       0.702700
     19 O28         -1.0290    -2.2270    -0.4390 o          1 2PD      -0.641500
     20 N27         -2.7660    -0.7960    -0.4600 n          1 2PD      -0.174800
     21 C22         -3.7250    -1.9020    -0.4760 c3         1 2PD       0.112000
     22 C21         -4.0900    -2.3520     0.9310 c3         1 2PD      -0.095400
     23 C23         -5.1500    -3.4550     0.9530 c3         1 2PD      -0.055700
     24 C19         -4.6410    -4.7490     0.3230 c3         1 2PD      -0.090100
     25 C18         -5.6030    -3.7100     2.3870 c3         1 2PD      -0.090100
     26 N25         -3.3050     0.3990    -0.3910 nc         1 2PD      -0.380300
     27 C13         -2.5570     1.4500    -0.3450 cd         1 2PD       0.320200
     28 C9          -3.2370     2.7620    -0.2970 ca         1 2PD      -0.142900
     29 C4          -4.1900     3.0850    -1.2620 ca         1 2PD      -0.106500
     30 C2          -4.8470     4.3040    -1.2110 ca         1 2PD      -0.126500
     31 C5          -2.9560     3.6730     0.7230 ca         1 2PD      -0.106500
     32 C3          -3.6150     4.8940     0.7670 ca         1 2PD      -0.126500
     33 C1          -4.5580     5.2120    -0.2000 ca         1 2PD      -0.109000
     34 H8           5.6040    -1.5460    -0.5340 ha         1 2PD       0.162000
     35 H20          7.9270     1.9620     0.9370 h1         1 2PD       0.042367
     36 H20A         7.5470     1.1240     2.4600 h1         1 2PD       0.042367
     37 H20B         8.9160     0.5910     1.4700 h1         1 2PD       0.042367
     38 H7           5.6950     2.2110     1.5490 ha         1 2PD       0.137000
     39 HN26         0.6570    -2.0930    -0.7650 hn         1 2PD       0.508800
     40 H6           3.3120     2.4980     1.1490 ha         1 2PD       0.146000
     41 HO31        -0.9580     3.2350    -0.5310 ho         1 2PD       0.450000
     42 H22         -4.6050    -1.5350    -1.0030 h1         1 2PD       0.075200
     43 H22A        -3.3010    -2.7110    -1.0660 h1         1 2PD       0.075200
     44 H21         -3.1940    -2.7040     1.4520 hc         1 2PD       0.055700
     45 H21A        -4.4610    -1.4850     1.4850 hc         1 2PD       0.055700
     46 H23         -6.0170    -3.1070     0.3790 hc         1 2PD       0.043700
     47 H19         -3.7540    -5.1070     0.8510 hc         1 2PD       0.035700
     48 H19A        -5.3980    -5.5330     0.3740 hc         1 2PD       0.035700
     49 H19B        -4.3730    -4.6280    -0.7280 hc         1 2PD       0.035700
     50 H18         -5.9860    -2.8010     2.8550 hc         1 2PD       0.035700
     51 H18A        -6.3940    -4.4600     2.4250 hc         1 2PD       0.035700
     52 H18B        -4.7720    -4.0730     2.9970 hc         1 2PD       0.035700
     53 H4          -4.4090     2.3820    -2.0540 ha         1 2PD       0.143000
     54 H2          -5.5820     4.5480    -1.9670 ha         1 2PD       0.140000
     55 H5          -2.2460     3.4250     1.5030 ha         1 2PD       0.143000
     56 H3          -3.3940     5.5940     1.5620 ha         1 2PD       0.140000
     57 H1          -5.0690     6.1650    -0.1650 ha         1 2PD       0.138000
@<TRIPOS>BOND
     1     1     2 2   
     2     2     3 2   
     3     2     4 1   
     4     2    10 1   
     5     4     5 ar  
     6     4    13 ar  
     7     5     6 ar  
     8     5    34 1   
     9     6     7 1   
    10     6     9 ar  
    11     7     8 1   
    12     8    35 1   
    13     8    36 1   
    14     8    37 1   
    15     9    14 ar  
    16     9    38 1   
    17    10    11 1   
    18    10    39 1   
    19    11    12 2   
    20    11    15 1   
    21    12    13 1   
    22    13    14 ar  
    23    14    40 1   
    24    15    16 2   
    25    15    18 1   
    26    16    17 1   
    27    16    27 1   
    28    17    41 1   
    29    18    19 2   
    30    18    20 1   
    31    20    21 1   
    32    20    26 1   
    33    21    22 1   
    34    21    42 1   
    35    21    43 1   
    36    22    23 1   
    37    22    44 1   
    38    22    45 1   
    39    23    24 1   
    40    23    25 1   
    41    23    46 1   
    42    24    47 1   
    43    24    48 1   
    44    24    49 1   
    45    25    50 1   
    46    25    51 1   
    47    25    52 1   
    48    26    27 2   
    49    27    28 1   
    50    28    29 ar  
    51    28    31 ar  
    52    29    30 ar  
    53    29    53 1   
    54    30    33 ar  
    55    30    54 1   
    56    31    32 ar  
    57    31    55 1   
    58    32    33 ar  
    59    32    56 1   
    60    33    57 1   
@<TRIPOS>SUBSTRUCTURE
     1 2PD         1 TEMP              0 ****  ****    0 ROOT
