@<TRIPOS>MOLECULE
2PE
   66    65     1     0     0
SMALL
bcc


@<TRIPOS>ATOM
      1 O1          -0.3420    -1.1200    11.4820 oh         1 2PE      -0.586800
      2 C2          -1.4230    -1.2010    10.5820 c3         1 2PE       0.140400
      3 C3          -1.5630     0.1040     9.8400 c3         1 2PE       0.137400
      4 O4          -0.4380     0.3180     9.0250 os         1 2PE      -0.387100
      5 C5          -0.5380     1.4930     8.2620 c3         1 2PE       0.138900
      6 C6           0.6910     1.6480     7.4030 c3         1 2PE       0.138400
      7 O7           0.7520     0.6020     6.4670 os         1 2PE      -0.388100
      8 C8           1.8660     0.7030     5.6170 c3         1 2PE       0.138400
      9 C9           1.9260    -0.4960     4.7060 c3         1 2PE       0.138400
     10 O10          0.8150    -0.5060     3.8470 os         1 2PE      -0.387600
     11 C11          0.8370    -1.5960     2.9610 c3         1 2PE       0.138400
     12 C12         -0.4090    -1.6030     2.1150 c3         1 2PE       0.138400
     13 O13         -0.4300    -0.4760     1.2750 os         1 2PE      -0.387100
     14 C14         -1.5510    -0.4650     0.4280 c3         1 2PE       0.138400
     15 C15         -1.5480     0.7790    -0.4210 c3         1 2PE       0.138400
     16 O16         -0.4420     0.7680    -1.2870 os         1 2PE      -0.387100
     17 C17         -0.4330     1.8720    -2.1560 c3         1 2PE       0.138400
     18 C18          0.8020     1.8430    -3.0170 c3         1 2PE       0.138400
     19 O19          0.7780     0.7180    -3.8580 os         1 2PE      -0.387600
     20 C20          1.8890     0.6690    -4.7160 c3         1 2PE       0.138400
     21 C21          1.8510    -0.5890    -5.5430 c3         1 2PE       0.138400
     22 O22          0.7400    -0.5690    -6.4040 os         1 2PE      -0.388100
     23 C23          0.6910    -1.6980    -7.2380 c3         1 2PE       0.138400
     24 C24         -0.5390    -1.6470    -8.1070 c3         1 2PE       0.138900
     25 O25         -0.4630    -0.5540    -8.9860 os         1 2PE      -0.387100
     26 C26         -1.5520    -0.5010    -9.8720 c3         1 2PE       0.137400
     27 C27         -1.4330     0.7050   -10.7670 c3         1 2PE       0.140400
     28 O28         -0.3000     0.5680   -11.5940 oh         1 2PE      -0.586800
     29 HO1         -0.2790    -1.9580    11.9470 ho         1 2PE       0.400000
     30 H21         -1.2920    -2.0170     9.8580 h1         1 2PE       0.024950
     31 H22         -2.3740    -1.3840    11.0990 h1         1 2PE       0.024950
     32 H31         -2.4820     0.0590     9.2390 h1         1 2PE       0.025450
     33 H32         -1.6920     0.9290    10.5570 h1         1 2PE       0.025450
     34 H51         -1.4380     1.4760     7.6310 h1         1 2PE       0.027450
     35 H52         -0.6180     2.3800     8.9050 h1         1 2PE       0.027450
     36 H61          0.6370     2.6250     6.9030 h1         1 2PE       0.027950
     37 H62          1.5910     1.6630     8.0330 h1         1 2PE       0.027950
     38 H81          1.8270     1.6280     5.0230 h1         1 2PE       0.028200
     39 H82          2.8010     0.7360     6.1930 h1         1 2PE       0.028200
     40 H91          2.8660    -0.4450     4.1380 h1         1 2PE       0.027700
     41 H92          1.9670    -1.4180     5.3040 h1         1 2PE       0.027700
     42 H111         1.7290    -1.5630     2.3180 h1         1 2PE       0.027450
     43 H112         0.8770    -2.5490     3.5090 h1         1 2PE       0.027450
     44 H121        -0.4140    -2.5320     1.5280 h1         1 2PE       0.027200
     45 H122        -1.3010    -1.6300     2.7570 h1         1 2PE       0.027200
     46 H141        -1.5660    -1.3580    -0.2130 h1         1 2PE       0.027200
     47 H142        -2.4850    -0.4760     1.0080 h1         1 2PE       0.027200
     48 H151        -2.4920     0.8050    -0.9840 h1         1 2PE       0.027200
     49 H152        -1.5360     1.6730     0.2190 h1         1 2PE       0.027200
     50 H171        -1.3330     1.8810    -2.7880 h1         1 2PE       0.027200
     51 H172        -0.4320     2.8170    -1.5950 h1         1 2PE       0.027200
     52 H181         0.8290     2.7740    -3.6010 h1         1 2PE       0.027450
     53 H182         1.7020     1.8400    -2.3850 h1         1 2PE       0.027450
     54 H201         1.9160     1.5510    -5.3730 h1         1 2PE       0.027700
     55 H202         2.8290     0.6700    -4.1460 h1         1 2PE       0.027700
     56 H211         2.7890    -0.6480    -6.1120 h1         1 2PE       0.028200
     57 H212         1.8220    -1.4710    -4.8870 h1         1 2PE       0.028200
     58 H231         1.5910    -1.7600    -7.8660 h1         1 2PE       0.027950
     59 H232         0.6520    -2.6240    -6.6480 h1         1 2PE       0.027950
     60 H241        -0.6010    -2.5960    -8.6590 h1         1 2PE       0.027450
     61 H242        -1.4410    -1.5870    -7.4800 h1         1 2PE       0.027450
     62 H261        -1.6060    -1.4170   -10.4790 h1         1 2PE       0.025450
     63 H262        -2.5030    -0.4290    -9.3250 h1         1 2PE       0.025450
     64 H271        -2.3610     0.7710   -11.3500 h1         1 2PE       0.024950
     65 H272        -1.3810     1.6120   -10.1510 h1         1 2PE       0.024950
     66 HO2         -0.2300     1.3590   -12.1370 ho         1 2PE       0.400000
@<TRIPOS>BOND
     1     1     2 1   
     2     1    29 1   
     3     2     3 1   
     4     2    30 1   
     5     2    31 1   
     6     3     4 1   
     7     3    32 1   
     8     3    33 1   
     9     4     5 1   
    10     5     6 1   
    11     5    34 1   
    12     5    35 1   
    13     6     7 1   
    14     6    36 1   
    15     6    37 1   
    16     7     8 1   
    17     8     9 1   
    18     8    38 1   
    19     8    39 1   
    20     9    10 1   
    21     9    40 1   
    22     9    41 1   
    23    10    11 1   
    24    11    12 1   
    25    11    42 1   
    26    11    43 1   
    27    12    13 1   
    28    12    44 1   
    29    12    45 1   
    30    13    14 1   
    31    14    15 1   
    32    14    46 1   
    33    14    47 1   
    34    15    16 1   
    35    15    48 1   
    36    15    49 1   
    37    16    17 1   
    38    17    18 1   
    39    17    50 1   
    40    17    51 1   
    41    18    19 1   
    42    18    52 1   
    43    18    53 1   
    44    19    20 1   
    45    20    21 1   
    46    20    54 1   
    47    20    55 1   
    48    21    22 1   
    49    21    56 1   
    50    21    57 1   
    51    22    23 1   
    52    23    24 1   
    53    23    58 1   
    54    23    59 1   
    55    24    25 1   
    56    24    60 1   
    57    24    61 1   
    58    25    26 1   
    59    26    27 1   
    60    26    62 1   
    61    26    63 1   
    62    27    28 1   
    63    27    64 1   
    64    27    65 1   
    65    28    66 1   
@<TRIPOS>SUBSTRUCTURE
     1 2PE         1 TEMP              0 ****  ****    0 ROOT
