@<TRIPOS>MOLECULE
2PE
   66    65     1     0     0
SMALL
No Charge or Current Charge


@<TRIPOS>ATOM
      1 O1           0.3200    -0.3930    12.4930 oh         1 2PE      -0.709000
      2 C2          -0.4380    -1.2530    11.6190 c3         1 2PE       0.163600
      3 C3          -1.3420    -0.4390    10.6540 c3         1 2PE       0.160600
      4 O4          -0.5140     0.2770     9.7160 os         1 2PE      -0.433500
      5 C5          -1.2450     1.0820     8.7690 c3         1 2PE       0.162100
      6 C6          -0.2440     1.7810     7.8180 c3         1 2PE       0.161600
      7 O7           0.3180     0.8010     6.9220 os         1 2PE      -0.434500
      8 C8           1.2790     1.3290     5.9870 c3         1 2PE       0.161600
      9 C9           1.7880     0.1810     5.0830 c3         1 2PE       0.161600
     10 O10          0.7400    -0.2010     4.1700 os         1 2PE      -0.434000
     11 C11          1.0890    -1.2750     3.2750 c3         1 2PE       0.161600
     12 C12         -0.1140    -1.5730     2.3490 c3         1 2PE       0.161600
     13 O13         -0.2560    -0.4960     1.4010 os         1 2PE      -0.433500
     14 C14         -1.3560    -0.6510     0.4820 c3         1 2PE       0.161600
     15 C15         -1.3850     0.5600    -0.4810 c3         1 2PE       0.161600
     16 O16         -0.2790     0.4580    -1.4000 os         1 2PE      -0.433500
     17 C17         -0.1890     1.5400    -2.3480 c3         1 2PE       0.161600
     18 C18          1.0260     1.2990    -3.2750 c3         1 2PE       0.161600
     19 O19          0.7280     0.2100    -4.1700 os         1 2PE      -0.434000
     20 C20          1.7920    -0.1210    -5.0840 c3         1 2PE       0.161600
     21 C21          1.3370    -1.2910    -5.9880 c3         1 2PE       0.161600
     22 O22          0.3510    -0.8080    -6.9220 os         1 2PE      -0.434500
     23 C23         -0.1650    -1.8130    -7.8180 c3         1 2PE       0.161600
     24 C24         -1.2000    -1.1620    -8.7670 c3         1 2PE       0.162100
     25 O25         -0.5100    -0.3230    -9.7140 os         1 2PE      -0.433500
     26 C26         -1.3730     0.3550   -10.6500 c3         1 2PE       0.160600
     27 C27         -0.5100     1.2120   -11.6150 c3         1 2PE       0.163600
     28 O28          0.2870     0.3900   -12.4920 oh         1 2PE      -0.709000
     29 HO1          0.9090    -0.9760    13.0270 ho         1 2PE       0.499000
     30 H21          0.2350    -1.8880    11.0260 h1         1 2PE       0.024950
     31 H22         -1.0770    -1.9190    12.2130 h1         1 2PE       0.024950
     32 H31         -2.0060    -1.1330    10.1220 h1         1 2PE       0.025450
     33 H32         -1.9670     0.2520    11.2340 h1         1 2PE       0.025450
     34 H51         -1.9400     0.4660     8.1820 h1         1 2PE       0.027450
     35 H52         -1.8290     1.8490     9.2940 h1         1 2PE       0.027450
     36 H61         -0.7770     2.5530     7.2480 h1         1 2PE       0.027950
     37 H62          0.5410     2.2720     8.4080 h1         1 2PE       0.027950
     38 H81          0.8320     2.1160     5.3640 h1         1 2PE       0.028200
     39 H82          2.1330     1.7620     6.5240 h1         1 2PE       0.028200
     40 H91          2.6660     0.5320     4.5260 h1         1 2PE       0.027700
     41 H92          2.0970    -0.6680     5.7070 h1         1 2PE       0.027700
     42 H111         1.9650    -1.0130     2.6670 h1         1 2PE       0.027450
     43 H112         1.3290    -2.1820     3.8460 h1         1 2PE       0.027450
     44 H121         0.0690    -2.5190     1.8240 h1         1 2PE       0.027200
     45 H122        -1.0240    -1.6880     2.9540 h1         1 2PE       0.027200
     46 H141        -1.2590    -1.5790    -0.0980 h1         1 2PE       0.027200
     47 H142        -2.3060    -0.6900     1.0310 h1         1 2PE       0.027200
     48 H151        -2.3360     0.5540    -1.0290 h1         1 2PE       0.027200
     49 H152        -1.3310     1.4910     0.0990 h1         1 2PE       0.027200
     50 H171        -1.1030     1.6120    -2.9520 h1         1 2PE       0.027200
     51 H172        -0.0500     2.4930    -1.8220 h1         1 2PE       0.027200
     52 H181         1.2230     2.2160    -3.8460 h1         1 2PE       0.027450
     53 H182         1.9140     1.0780    -2.6670 h1         1 2PE       0.027450
     54 H201         2.0600     0.7420    -5.7080 h1         1 2PE       0.027700
     55 H202         2.6860    -0.4310    -4.5280 h1         1 2PE       0.027700
     56 H211         2.2100    -1.6830    -6.5270 h1         1 2PE       0.028200
     57 H212         0.9290    -2.0990    -5.3660 h1         1 2PE       0.028200
     58 H231         0.6420    -2.2660    -8.4100 h1         1 2PE       0.027950
     59 H232        -0.6600    -2.6110    -7.2490 h1         1 2PE       0.027950
     60 H241        -1.7470    -1.9560    -9.2920 h1         1 2PE       0.027450
     61 H242        -1.9230    -0.5810    -8.1780 h1         1 2PE       0.027450
     62 H261        -1.9650    -0.3660   -11.2300 h1         1 2PE       0.025450
     63 H262        -2.0680     1.0150   -10.1160 h1         1 2PE       0.025450
     64 H271        -1.1810     1.8470   -12.2080 h1         1 2PE       0.024950
     65 H272         0.1330     1.8770   -11.0230 h1         1 2PE       0.024950
     66 HO2          0.8460     1.0010   -13.0260 ho         1 2PE       0.499000
@<TRIPOS>BOND
     1     1     2 1   
     2     1    29 1   
     3     2     3 1   
     4     2    30 1   
     5     2    31 1   
     6     3     4 1   
     7     3    32 1   
     8     3    33 1   
     9     4     5 1   
    10     5     6 1   
    11     5    34 1   
    12     5    35 1   
    13     6     7 1   
    14     6    36 1   
    15     6    37 1   
    16     7     8 1   
    17     8     9 1   
    18     8    38 1   
    19     8    39 1   
    20     9    10 1   
    21     9    40 1   
    22     9    41 1   
    23    10    11 1   
    24    11    12 1   
    25    11    42 1   
    26    11    43 1   
    27    12    13 1   
    28    12    44 1   
    29    12    45 1   
    30    13    14 1   
    31    14    15 1   
    32    14    46 1   
    33    14    47 1   
    34    15    16 1   
    35    15    48 1   
    36    15    49 1   
    37    16    17 1   
    38    17    18 1   
    39    17    50 1   
    40    17    51 1   
    41    18    19 1   
    42    18    52 1   
    43    18    53 1   
    44    19    20 1   
    45    20    21 1   
    46    20    54 1   
    47    20    55 1   
    48    21    22 1   
    49    21    56 1   
    50    21    57 1   
    51    22    23 1   
    52    23    24 1   
    53    23    58 1   
    54    23    59 1   
    55    24    25 1   
    56    24    60 1   
    57    24    61 1   
    58    25    26 1   
    59    26    27 1   
    60    26    62 1   
    61    26    63 1   
    62    27    28 1   
    63    27    64 1   
    64    27    65 1   
    65    28    66 1   
@<TRIPOS>SUBSTRUCTURE
     1 2PE         1 TEMP              0 ****  ****    0 ROOT
