@<TRIPOS>MOLECULE
2PJ
   53    55     1     0     0
SMALL
No Charge or Current Charge


@<TRIPOS>ATOM
      1 C7          -6.3770     0.1380    -1.4440 ca         1 2PJ      -0.103000
      2 C6          -5.9700    -1.1670    -1.7600 ca         1 2PJ      -0.107000
      3 C1          -1.0780    -1.3010     2.1090 c3         1 2PJ      -0.016100
      4 C5          -4.8480    -1.7240    -1.1250 ca         1 2PJ      -0.092000
      5 C4          -4.1330    -0.9730    -0.1720 ca         1 2PJ      -0.080000
      6 C3          -3.0090    -1.5300     0.4640 ca         1 2PJ      -0.058000
      7 C2          -2.3160    -0.7530     1.4070 ca         1 2PJ      -0.138300
      8 C8          -5.6620     0.8870    -0.4920 ca         1 2PJ      -0.081000
      9 C9          -4.5340     0.3480     0.1560 ca         1 2PJ       0.268000
     10 N10         -3.8630     1.0910     1.0670 nb         1 2PJ      -0.657000
     11 C11         -2.7800     0.5500     1.6730 ca         1 2PJ       0.362900
     12 C12          0.1450    -1.3820     1.1610 c3         1 2PJ      -0.044400
     13 C13          0.4300    -0.0330     0.4780 ca         1 2PJ      -0.092300
     14 C14          0.4610     0.0880    -0.9330 ca         1 2PJ       0.159000
     15 F15          0.2280    -0.9830    -1.7240 f          1 2PJ      -0.179000
     16 C16          0.7410     1.3230    -1.5410 ca         1 2PJ      -0.126000
     17 C17          0.9970     2.4570    -0.7500 ca         1 2PJ      -0.125000
     18 C18          0.9700     2.3460     0.6480 ca         1 2PJ       0.161000
     19 C19          0.6890     1.1150     1.2610 ca         1 2PJ      -0.113000
     20 F20          1.2190     3.4330     1.4110 f          1 2PJ      -0.173000
     21 C21          1.3980    -1.9400     1.8830 c3         1 2PJ       0.118000
     22 N22          2.5550    -2.0160     0.9880 ns         1 2PJ      -0.500900
     23 C23          3.5160    -1.0530     0.8750 c          1 2PJ       0.651100
     24 O24          3.6180    -0.0820     1.6070 o          1 2PJ      -0.545000
     25 O25          4.2850    -1.3520    -0.2160 os         1 2PJ      -0.479100
     26 C26          5.3030    -0.4530    -0.7150 c3         1 2PJ       0.224000
     27 C27          6.4110    -0.2680     0.3530 c3         1 2PJ      -0.108767
     28 C28          5.8790    -1.1790    -1.9510 c3         1 2PJ      -0.108767
     29 C29          4.6420     0.8830    -1.1470 c3         1 2PJ      -0.108767
     30 H1          -7.2460     0.5710    -1.9340 ha         1 2PJ       0.116000
     31 H2          -6.5230    -1.7470    -2.4960 ha         1 2PJ       0.115000
     32 H3          -0.8290    -0.6840     2.9820 hc         1 2PJ       0.053700
     33 H4          -1.2920    -2.3020     2.5030 hc         1 2PJ       0.053700
     34 H5          -4.5370    -2.7360    -1.3740 ha         1 2PJ       0.114000
     35 H6          -2.6800    -2.5400     0.2280 ha         1 2PJ       0.116000
     36 H7          -5.9830     1.8970    -0.2530 ha         1 2PJ       0.131000
     37 H8          -2.2660     1.1860     2.3930 h4         1 2PJ       0.020100
     38 H9          -0.1150    -2.1260     0.3990 hc         1 2PJ       0.066700
     39 H10          0.7620     1.3990    -2.6250 ha         1 2PJ       0.136000
     40 H11          1.2170     3.4140    -1.2150 ha         1 2PJ       0.136000
     41 H12          0.6890     1.0560     2.3450 ha         1 2PJ       0.141000
     42 H13          1.6450    -1.3030     2.7430 h1         1 2PJ       0.063200
     43 H14          1.1840    -2.9470     2.2650 h1         1 2PJ       0.063200
     44 H15          2.5950    -2.7550     0.2980 hn         1 2PJ       0.322500
     45 H16          6.7220    -1.2360     0.7640 hc         1 2PJ       0.049256
     46 H17          7.2930     0.2090    -0.0910 hc         1 2PJ       0.049256
     47 H18          6.0820     0.3700     1.1800 hc         1 2PJ       0.049256
     48 H19          5.0950    -1.3590    -2.6970 hc         1 2PJ       0.049256
     49 H20          6.6660    -0.5800    -2.4240 hc         1 2PJ       0.049256
     50 H21          6.3110    -2.1470    -1.6690 hc         1 2PJ       0.049256
     51 H22          4.3240     1.4810    -0.2870 hc         1 2PJ       0.049256
     52 H23          5.3520     1.4910    -1.7210 hc         1 2PJ       0.049256
     53 H24          3.7670     0.6970    -1.7800 hc         1 2PJ       0.049256
@<TRIPOS>BOND
     1     1     2 ar  
     2     1     8 ar  
     3     1    30 1   
     4     2     4 ar  
     5     2    31 1   
     6     3     7 1   
     7     3    12 1   
     8     3    32 1   
     9     3    33 1   
    10     4     5 ar  
    11     4    34 1   
    12     5     6 ar  
    13     5     9 ar  
    14     6     7 ar  
    15     6    35 1   
    16     7    11 ar  
    17     8     9 ar  
    18     8    36 1   
    19     9    10 ar  
    20    10    11 ar  
    21    11    37 1   
    22    12    13 1   
    23    12    21 1   
    24    12    38 1   
    25    13    14 ar  
    26    13    19 ar  
    27    14    15 1   
    28    14    16 ar  
    29    16    17 ar  
    30    16    39 1   
    31    17    18 ar  
    32    17    40 1   
    33    18    19 ar  
    34    18    20 1   
    35    19    41 1   
    36    21    22 1   
    37    21    42 1   
    38    21    43 1   
    39    22    23 1   
    40    22    44 1   
    41    23    24 2   
    42    23    25 1   
    43    25    26 1   
    44    26    27 1   
    45    26    28 1   
    46    26    29 1   
    47    27    45 1   
    48    27    46 1   
    49    27    47 1   
    50    28    48 1   
    51    28    49 1   
    52    28    50 1   
    53    29    51 1   
    54    29    52 1   
    55    29    53 1   
@<TRIPOS>SUBSTRUCTURE
     1 2PJ         1 TEMP              0 ****  ****    0 ROOT
