@<TRIPOS>MOLECULE
2PJ
   53    55     1     0     0
SMALL
abcg2


@<TRIPOS>ATOM
      1 C7          -6.5280    -0.0580    -1.3450 ca         1 2PJ      -0.103000
      2 C6          -6.2810    -1.4470    -1.3770 ca         1 2PJ      -0.107000
      3 C1          -1.0660    -1.1810     1.9580 c3         1 2PJ      -0.016100
      4 C5          -5.1860    -1.9680    -0.7430 ca         1 2PJ      -0.092000
      5 C4          -4.2920    -1.1200    -0.0510 ca         1 2PJ      -0.080000
      6 C3          -3.1470    -1.5980     0.6210 ca         1 2PJ      -0.058000
      7 C2          -2.3210    -0.7260     1.2750 ca         1 2PJ      -0.138300
      8 C8          -5.6780     0.7860    -0.6820 ca         1 2PJ      -0.081000
      9 C9          -4.5400     0.2740    -0.0180 ca         1 2PJ       0.268000
     10 N10         -3.7200     1.1310     0.6350 nb         1 2PJ      -0.657000
     11 C11         -2.6720     0.6460     1.2430 ca         1 2PJ       0.362900
     12 C12          0.1090    -1.2880     0.9730 c3         1 2PJ      -0.044400
     13 C13          0.4490     0.0480     0.3610 ca         1 2PJ      -0.092300
     14 C14          0.3550     0.2870    -1.0020 ca         1 2PJ       0.159000
     15 F15         -0.0660    -0.6970    -1.8160 f          1 2PJ      -0.179000
     16 C16          0.6780     1.5030    -1.5770 ca         1 2PJ      -0.126000
     17 C17          1.1190     2.5390    -0.7710 ca         1 2PJ      -0.125000
     18 C18          1.2170     2.3130     0.5880 ca         1 2PJ       0.161000
     19 C19          0.8900     1.1020     1.1580 ca         1 2PJ      -0.113000
     20 F20          1.6480     3.3070     1.3850 f          1 2PJ      -0.173000
     21 C21          1.3300    -1.9180     1.6560 c3         1 2PJ       0.118000
     22 N22          2.4610    -2.0100     0.7690 ns         1 2PJ      -0.500900
     23 C23          3.4940    -1.1370     0.8020 c          1 2PJ       0.651100
     24 O24          3.6920    -0.3400     1.6950 o          1 2PJ      -0.545000
     25 O25          4.2670    -1.3090    -0.2710 os         1 2PJ      -0.479100
     26 C26          5.3770    -0.4270    -0.5800 c3         1 2PJ       0.224000
     27 C27          6.4600    -0.4910     0.4900 c3         1 2PJ      -0.108767
     28 C28          5.9140    -0.9950    -1.8890 c3         1 2PJ      -0.108767
     29 C29          4.8830     0.9980    -0.8010 c3         1 2PJ      -0.108767
     30 H1          -7.3990     0.3390    -1.8490 ha         1 2PJ       0.116000
     31 H2          -6.9640    -2.0990    -1.9060 ha         1 2PJ       0.115000
     32 H3          -0.8120    -0.4990     2.7730 hc         1 2PJ       0.053700
     33 H4          -1.2290    -2.1620     2.4110 hc         1 2PJ       0.053700
     34 H5          -4.9910    -3.0340    -0.7640 ha         1 2PJ       0.114000
     35 H6          -2.9320    -2.6620     0.6130 ha         1 2PJ       0.116000
     36 H7          -5.8610     1.8530    -0.6510 ha         1 2PJ       0.131000
     37 H8          -2.0380     1.3590     1.7620 h4         1 2PJ       0.020100
     38 H9          -0.2020    -1.9710     0.1790 hc         1 2PJ       0.066700
     39 H10          0.5880     1.6380    -2.6460 ha         1 2PJ       0.136000
     40 H11          1.3830     3.4990    -1.1950 ha         1 2PJ       0.136000
     41 H12          0.9920     0.9750     2.2280 ha         1 2PJ       0.141000
     42 H13          1.6230    -1.3480     2.5370 h1         1 2PJ       0.063200
     43 H14          1.0590    -2.9170     2.0010 h1         1 2PJ       0.063200
     44 H15          2.3640    -2.5940    -0.0460 hn         1 2PJ       0.322500
     45 H16          6.7420    -1.5240     0.7030 hc         1 2PJ       0.049256
     46 H17          7.3500     0.0240     0.1250 hc         1 2PJ       0.049256
     47 H18          6.1570    -0.0150     1.4180 hc         1 2PJ       0.049256
     48 H19          5.1570    -0.9720    -2.6740 hc         1 2PJ       0.049256
     49 H20          6.7640    -0.4010    -2.2250 hc         1 2PJ       0.049256
     50 H21          6.2550    -2.0240    -1.7670 hc         1 2PJ       0.049256
     51 H22          4.5330     1.4650     0.1170 hc         1 2PJ       0.049256
     52 H23          5.6990     1.6040    -1.1960 hc         1 2PJ       0.049256
     53 H24          4.0680     1.0210    -1.5280 hc         1 2PJ       0.049256
@<TRIPOS>BOND
     1     1     2 ar  
     2     1     8 ar  
     3     1    30 1   
     4     2     4 ar  
     5     2    31 1   
     6     3     7 1   
     7     3    12 1   
     8     3    32 1   
     9     3    33 1   
    10     4     5 ar  
    11     4    34 1   
    12     5     6 ar  
    13     5     9 ar  
    14     6     7 ar  
    15     6    35 1   
    16     7    11 ar  
    17     8     9 ar  
    18     8    36 1   
    19     9    10 ar  
    20    10    11 ar  
    21    11    37 1   
    22    12    13 1   
    23    12    21 1   
    24    12    38 1   
    25    13    14 ar  
    26    13    19 ar  
    27    14    15 1   
    28    14    16 ar  
    29    16    17 ar  
    30    16    39 1   
    31    17    18 ar  
    32    17    40 1   
    33    18    19 ar  
    34    18    20 1   
    35    19    41 1   
    36    21    22 1   
    37    21    42 1   
    38    21    43 1   
    39    22    23 1   
    40    22    44 1   
    41    23    24 2   
    42    23    25 1   
    43    25    26 1   
    44    26    27 1   
    45    26    28 1   
    46    26    29 1   
    47    27    45 1   
    48    27    46 1   
    49    27    47 1   
    50    28    48 1   
    51    28    49 1   
    52    28    50 1   
    53    29    51 1   
    54    29    52 1   
    55    29    53 1   
@<TRIPOS>SUBSTRUCTURE
     1 2PJ         1 TEMP              0 ****  ****    0 ROOT
