@<TRIPOS>MOLECULE
2PM
   40    41     1     0     0
SMALL
bcc


@<TRIPOS>ATOM
      1 C1           2.4180     3.2460    -0.6060 ca         1 2PM      -0.132500
      2 C2           2.1150     3.7860     0.6380 ca         1 2PM      -0.125000
      3 C3           1.1770     3.1560     1.4450 ca         1 2PM      -0.132500
      4 C4           0.5480     1.9930     1.0180 ca         1 2PM      -0.110000
      5 C5           0.8530     1.4450    -0.2240 ca         1 2PM      -0.098300
      6 C6           1.7900     2.0850    -1.0310 ca         1 2PM      -0.110000
      7 C7           0.2360     0.1490    -0.6960 c3         1 2PM       0.241700
      8 C8           1.1740    -1.0050    -0.3870 ca         1 2PM      -0.098300
      9 C9           1.9420    -1.5790    -1.3920 ca         1 2PM      -0.110000
     10 C10          2.8240    -2.6150    -1.1050 ca         1 2PM      -0.132500
     11 C11          2.9340    -3.0930     0.1920 ca         1 2PM      -0.125000
     12 C12          2.1620    -2.5280     1.2010 ca         1 2PM      -0.132500
     13 C13          1.2900    -1.4890     0.9140 ca         1 2PM      -0.110000
     14 O1          -1.0140    -0.0030    -0.0840 os         1 2PM      -0.387600
     15 C14         -1.7670    -1.0830    -0.5860 c3         1 2PM       0.138400
     16 C15         -3.0610    -1.1980     0.1910 c3         1 2PM       0.168800
     17 N1          -3.9140    -0.0300     0.1160 n3         1 2PM      -0.702600
     18 C16         -4.4440     0.1940    -1.2100 c3         1 2PM       0.152100
     19 C17         -4.9770    -0.1020     1.0930 c3         1 2PM       0.152100
     20 H1           3.1430     3.7320    -1.2470 ha         1 2PM       0.129250
     21 H2           2.6010     4.6930     0.9720 ha         1 2PM       0.128500
     22 H3           0.9310     3.5710     2.4140 ha         1 2PM       0.129250
     23 H4          -0.1830     1.5180     1.6600 ha         1 2PM       0.134500
     24 H6           2.0300     1.6730    -2.0050 ha         1 2PM       0.134500
     25 H7           0.1200     0.2040    -1.7910 h1         1 2PM       0.040700
     26 H9           1.8530    -1.2190    -2.4110 ha         1 2PM       0.134500
     27 H10          3.4190    -3.0510    -1.8980 ha         1 2PM       0.129250
     28 H11          3.6150    -3.9050     0.4160 ha         1 2PM       0.128500
     29 H12          2.2410    -2.8990     2.2150 ha         1 2PM       0.129250
     30 H13          0.6950    -1.0560     1.7090 ha         1 2PM       0.134500
     31 H141        -1.2260    -2.0320    -0.4760 h1         1 2PM       0.026200
     32 H142        -1.9520    -0.9520    -1.6600 h1         1 2PM       0.026200
     33 H151        -2.8130    -1.3730     1.2420 h1         1 2PM       0.036700
     34 H152        -3.5720    -2.1110    -0.1630 h1         1 2PM       0.036700
     35 H161        -3.6440     0.3640    -1.9310 h1         1 2PM       0.028867
     36 H162        -5.0570    -0.6430    -1.5830 h1         1 2PM       0.028867
     37 H163        -5.0700     1.0870    -1.2100 h1         1 2PM       0.028867
     38 H171        -5.6590    -0.9540     0.9390 h1         1 2PM       0.028867
     39 H172        -4.5590    -0.1900     2.0970 h1         1 2PM       0.028867
     40 H173        -5.5750     0.8090     1.0600 h1         1 2PM       0.028867
@<TRIPOS>BOND
     1     1     2 ar  
     2     1     6 ar  
     3     1    20 1   
     4     2     3 ar  
     5     2    21 1   
     6     3     4 ar  
     7     3    22 1   
     8     4     5 ar  
     9     4    23 1   
    10     5     6 ar  
    11     5     7 1   
    12     6    24 1   
    13     7     8 1   
    14     7    14 1   
    15     7    25 1   
    16     8     9 ar  
    17     8    13 ar  
    18     9    10 ar  
    19     9    26 1   
    20    10    11 ar  
    21    10    27 1   
    22    11    12 ar  
    23    11    28 1   
    24    12    13 ar  
    25    12    29 1   
    26    13    30 1   
    27    14    15 1   
    28    15    16 1   
    29    15    31 1   
    30    15    32 1   
    31    16    17 1   
    32    16    33 1   
    33    16    34 1   
    34    17    18 1   
    35    17    19 1   
    36    18    35 1   
    37    18    36 1   
    38    18    37 1   
    39    19    38 1   
    40    19    39 1   
    41    19    40 1   
@<TRIPOS>SUBSTRUCTURE
     1 2PM         1 TEMP              0 ****  ****    0 ROOT
