@<TRIPOS>MOLECULE
2PM
   40    41     1     0     0
SMALL
No Charge or Current Charge


@<TRIPOS>ATOM
      1 C1           2.2720     3.4420    -0.6920 ca         1 2PM      -0.114500
      2 C2           2.0820     3.9130     0.6170 ca         1 2PM      -0.107000
      3 C3           1.3120     3.1660     1.5250 ca         1 2PM      -0.114500
      4 C4           0.7330     1.9500     1.1230 ca         1 2PM      -0.092000
      5 C5           0.9160     1.4700    -0.1920 ca         1 2PM      -0.098300
      6 C6           1.6930     2.2260    -1.0940 ca         1 2PM      -0.092000
      7 C7           0.3060     0.1430    -0.6520 c3         1 2PM       0.264900
      8 C8           1.2360    -1.0360    -0.3520 ca         1 2PM      -0.098300
      9 C9           1.9160    -1.6840    -1.4040 ca         1 2PM      -0.092000
     10 C10          2.7730    -2.7660    -1.1390 ca         1 2PM      -0.114500
     11 C11          2.9580    -3.2100     0.1810 ca         1 2PM      -0.107000
     12 C12          2.2870    -2.5700     1.2360 ca         1 2PM      -0.114500
     13 C13          1.4300    -1.4870     0.9710 ca         1 2PM      -0.092000
     14 O1          -0.9680    -0.0540    -0.0080 os         1 2PM      -0.434000
     15 C14         -1.7510    -1.1550    -0.5170 c3         1 2PM       0.161600
     16 C15         -3.1090    -1.2160     0.2400 c3         1 2PM       0.168800
     17 N1          -4.0050    -0.0270     0.1120 n3         1 2PM      -0.702600
     18 C16         -4.3980     0.2750    -1.2840 c3         1 2PM       0.152100
     19 C17         -5.1750    -0.1110     1.0130 c3         1 2PM       0.152100
     20 H1           2.8700     4.0180    -1.3950 ha         1 2PM       0.111250
     21 H2           2.5300     4.8540     0.9290 ha         1 2PM       0.110500
     22 H3           1.1650     3.5290     2.5390 ha         1 2PM       0.111250
     23 H4           0.1410     1.3820     1.8370 ha         1 2PM       0.116500
     24 H6           1.8520     1.8690    -2.1100 ha         1 2PM       0.116500
     25 H7           0.1540     0.2040    -1.7390 h1         1 2PM       0.040700
     26 H9           1.7810    -1.3480    -2.4310 ha         1 2PM       0.116500
     27 H10          3.2930    -3.2600    -1.9560 ha         1 2PM       0.111250
     28 H11          3.6210    -4.0480     0.3860 ha         1 2PM       0.110500
     29 H12          2.4290    -2.9120     2.2580 ha         1 2PM       0.111250
     30 H13          0.9130    -1.0000     1.7950 ha         1 2PM       0.116500
     31 H141        -1.2250    -2.1060    -0.3620 h1         1 2PM       0.026200
     32 H142        -1.9280    -1.0440    -1.5950 h1         1 2PM       0.026200
     33 H151        -2.8790    -1.3850     1.3010 h1         1 2PM       0.036700
     34 H152        -3.6420    -2.1110    -0.1080 h1         1 2PM       0.036700
     35 H161        -3.5190     0.4850    -1.9060 h1         1 2PM       0.028867
     36 H162        -4.9450    -0.5670    -1.7280 h1         1 2PM       0.028867
     37 H163        -5.0460     1.1610    -1.3200 h1         1 2PM       0.028867
     38 H171        -5.8220    -0.9550     0.7370 h1         1 2PM       0.028867
     39 H172        -4.8550    -0.2490     2.0540 h1         1 2PM       0.028867
     40 H173        -5.7710     0.8100     0.9640 h1         1 2PM       0.028867
@<TRIPOS>BOND
     1     1     2 ar  
     2     1     6 ar  
     3     1    20 1   
     4     2     3 ar  
     5     2    21 1   
     6     3     4 ar  
     7     3    22 1   
     8     4     5 ar  
     9     4    23 1   
    10     5     6 ar  
    11     5     7 1   
    12     6    24 1   
    13     7     8 1   
    14     7    14 1   
    15     7    25 1   
    16     8     9 ar  
    17     8    13 ar  
    18     9    10 ar  
    19     9    26 1   
    20    10    11 ar  
    21    10    27 1   
    22    11    12 ar  
    23    11    28 1   
    24    12    13 ar  
    25    12    29 1   
    26    13    30 1   
    27    14    15 1   
    28    15    16 1   
    29    15    31 1   
    30    15    32 1   
    31    16    17 1   
    32    16    33 1   
    33    16    34 1   
    34    17    18 1   
    35    17    19 1   
    36    18    35 1   
    37    18    36 1   
    38    18    37 1   
    39    19    38 1   
    40    19    39 1   
    41    19    40 1   
@<TRIPOS>SUBSTRUCTURE
     1 2PM         1 TEMP              0 ****  ****    0 ROOT
