@<TRIPOS>MOLECULE
2PN
   10     9     1     0     0
SMALL
No Charge or Current Charge


@<TRIPOS>ATOM
      1 P1           1.4040    -0.1210    -0.0830 p5         1 2PN       1.312800
      2 O1           1.6070    -1.3920     0.6610 o          1 2PN      -0.999833
      3 O2           1.5550     1.0780     0.7800 o          1 2PN      -0.999833
      4 O3           2.3730    -0.0300    -1.2040 o          1 2PN      -0.999833
      5 N1          -0.0240    -0.1090    -0.8070 n7         1 2PN      -0.966600
      6 P2          -1.4510     0.0160    -0.1100 p5         1 2PN       1.312800
      7 O4          -1.4640    -0.3180     1.3380 o          1 2PN      -0.999833
      8 O5          -1.8490     1.4190    -0.3750 o          1 2PN      -0.999833
      9 O6          -2.3460    -0.9000    -0.8620 o          1 2PN      -0.999833
     10 HN1         -0.0340     0.8420    -1.1240 hn         1 2PN       0.340000
@<TRIPOS>BOND
     1     1     2 1   
     2     1     3 1   
     3     1     4 1   
     4     1     5 1   
     5     5     6 1   
     6     5    10 1   
     7     6     7 1   
     8     6     8 1   
     9     6     9 1   
@<TRIPOS>SUBSTRUCTURE
     1 2PN         1 TEMP              0 ****  ****    0 ROOT
