@<TRIPOS>MOLECULE
2PN
   10     9     1     0     0
SMALL
abcg2


@<TRIPOS>ATOM
      1 P1           1.5200    -0.0510    -0.0100 p5         1 2PN       1.312800
      2 O1           1.7540    -1.3780     0.7250 o          1 2PN      -0.999833
      3 O2           1.5150     1.1560     0.9400 o          1 2PN      -0.999833
      4 O3           2.4740     0.1450    -1.2050 o          1 2PN      -0.999833
      5 N1          -0.0320    -0.1790    -0.7890 n7         1 2PN      -0.966600
      6 P2          -1.5790     0.1020    -0.0550 p5         1 2PN       1.312800
      7 O4          -1.4800    -0.5110     1.3450 o          1 2PN      -0.999833
      8 O5          -1.8490     1.6160    -0.0490 o          1 2PN      -0.999833
      9 O6          -2.5700    -0.6410    -0.9730 o          1 2PN      -0.999833
     10 HN1          0.0190     0.2270    -1.7150 hn         1 2PN       0.340000
@<TRIPOS>BOND
     1     1     2 1   
     2     1     3 1   
     3     1     4 1   
     4     1     5 1   
     5     5     6 1   
     6     5    10 1   
     7     6     7 1   
     8     6     8 1   
     9     6     9 1   
@<TRIPOS>SUBSTRUCTURE
     1 2PN         1 TEMP              0 ****  ****    0 ROOT
