@<TRIPOS>MOLECULE
2PO
    5     4     1     0     0
SMALL
bcc


@<TRIPOS>ATOM
      1 P           -1.0100     1.1430     0.2850 p5         1 2PO       1.200900
      2 O1P         -0.0520    -0.0100    -0.0270 o          1 2PO      -0.953500
      3 O2P         -2.1470     0.7700     1.2400 o          1 2PO      -0.953500
      4 O3P         -1.4620     1.9310    -0.9480 o          1 2PO      -0.953500
      5 HP          -0.1950     2.0960     1.0460 hp         1 2PO      -0.339400
@<TRIPOS>BOND
     1     1     2 1   
     2     1     3 1   
     3     1     4 1   
     4     1     5 1   
@<TRIPOS>SUBSTRUCTURE
     1 2PO         1 TEMP              0 ****  ****    0 ROOT
