@<TRIPOS>MOLECULE
2PO
    5     4     1     0     0
SMALL
No Charge or Current Charge


@<TRIPOS>ATOM
      1 P           -0.9800     1.1780     0.3130 p5         1 2PO       1.200900
      2 O1P         -0.1160     0.0170    -0.0320 o          1 2PO      -0.953500
      3 O2P         -2.1170     0.7620     1.1780 o          1 2PO      -0.953500
      4 O3P         -1.4620     1.8720    -0.9120 o          1 2PO      -0.953500
      5 HP          -0.1910     2.1000     1.0490 hp         1 2PO      -0.339400
@<TRIPOS>BOND
     1     1     2 1   
     2     1     3 1   
     3     1     4 1   
     4     1     5 1   
@<TRIPOS>SUBSTRUCTURE
     1 2PO         1 TEMP              0 ****  ****    0 ROOT
