@<TRIPOS>MOLECULE
2PP
   25    24     1     0     0
SMALL
bcc


@<TRIPOS>ATOM
      1 C1           1.2930     0.0120    -0.0210 c          1 2PP       0.924600
      2 C2          -0.2070    -0.3350     0.0070 c3         1 2PP      -0.192700
      3 C3          -0.8560     0.1500     1.3030 c3         1 2PP      -0.043400
      4 C4          -0.2780    -0.4760     2.5660 c3         1 2PP      -0.074400
      5 C5          -0.9920    -0.0120     3.8290 c3         1 2PP      -0.084100
      6 C6          -0.9230     0.2630    -1.2040 c3         1 2PP      -0.043400
      7 C7          -0.4210    -0.2500    -2.5490 c3         1 2PP      -0.074400
      8 C8          -1.2090     0.3160    -3.7220 c3         1 2PP      -0.084100
      9 O1           1.5810     1.2270     0.0390 o          1 2PP      -0.845800
     10 O2           2.1080    -0.9300    -0.1020 o          1 2PP      -0.845800
     11 H2          -0.3120    -1.4270    -0.0400 hc         1 2PP       0.028700
     12 H31         -1.9310    -0.0610     1.2630 hc         1 2PP       0.016450
     13 H32         -0.7640     1.2400     1.3620 hc         1 2PP       0.016450
     14 H41          0.7870    -0.2390     2.6460 hc         1 2PP       0.046950
     15 H42         -0.3410    -1.5660     2.4910 hc         1 2PP       0.046950
     16 H51         -0.5700    -0.4730     4.7230 hc         1 2PP       0.013700
     17 H52         -0.9160     1.0710     3.9490 hc         1 2PP       0.013700
     18 H53         -2.0540    -0.2630     3.7970 hc         1 2PP       0.013700
     19 H1'1        -1.9960     0.0510    -1.1230 hc         1 2PP       0.016450
     20 H1'2        -0.8280     1.3530    -1.1720 hc         1 2PP       0.016450
     21 H2'1         0.6370    -0.0000    -2.6690 hc         1 2PP       0.046950
     22 H2'2        -0.4780    -1.3430    -2.5640 hc         1 2PP       0.046950
     23 H3'1        -0.8450    -0.0700    -4.6750 hc         1 2PP       0.013700
     24 H3'2        -2.2680     0.0630    -3.6460 hc         1 2PP       0.013700
     25 H3'3        -1.1350     1.4050    -3.7580 hc         1 2PP       0.013700
@<TRIPOS>BOND
     1     1     2 1   
     2     1     9 1   
     3     1    10 1   
     4     2     3 1   
     5     2     6 1   
     6     2    11 1   
     7     3     4 1   
     8     3    12 1   
     9     3    13 1   
    10     4     5 1   
    11     4    14 1   
    12     4    15 1   
    13     5    16 1   
    14     5    17 1   
    15     5    18 1   
    16     6     7 1   
    17     6    19 1   
    18     6    20 1   
    19     7     8 1   
    20     7    21 1   
    21     7    22 1   
    22     8    23 1   
    23     8    24 1   
    24     8    25 1   
@<TRIPOS>SUBSTRUCTURE
     1 2PP         1 TEMP              0 ****  ****    0 ROOT
