@<TRIPOS>MOLECULE
2PP
   25    24     1     0     0
SMALL
No Charge or Current Charge


@<TRIPOS>ATOM
      1 C1           1.3020     0.0040    -0.0220 c          1 2PP       0.714000
      2 C2          -0.2180    -0.3010     0.0080 c3         1 2PP      -0.192700
      3 C3          -0.8780     0.1720     1.3330 c3         1 2PP      -0.043400
      4 C4          -0.2740    -0.4700     2.6040 c3         1 2PP      -0.074400
      5 C5          -0.9830    -0.0250     3.8980 c3         1 2PP      -0.084100
      6 C6          -0.9510     0.2840    -1.2310 c3         1 2PP      -0.043400
      7 C7          -0.4230    -0.2430    -2.5860 c3         1 2PP      -0.074400
      8 C8          -1.2030     0.3120    -3.7930 c3         1 2PP      -0.084100
      9 O1           1.6700     1.1690     0.0180 o          1 2PP      -0.740500
     10 O2           2.0770    -0.9400    -0.0860 o          1 2PP      -0.740500
     11 H2          -0.3380    -1.3910    -0.0360 hc         1 2PP       0.028700
     12 H31         -1.9490    -0.0640     1.2990 hc         1 2PP       0.016450
     13 H32         -0.8000     1.2640     1.4100 hc         1 2PP       0.016450
     14 H41          0.7890    -0.2130     2.6800 hc         1 2PP       0.046950
     15 H42         -0.3350    -1.5620     2.5230 hc         1 2PP       0.046950
     16 H51         -0.5210    -0.5040     4.7700 hc         1 2PP       0.013700
     17 H52         -0.9110     1.0620     4.0250 hc         1 2PP       0.013700
     18 H53         -2.0430    -0.3030     3.8750 hc         1 2PP       0.013700
     19 H1'1        -2.0190     0.0430    -1.1570 hc         1 2PP       0.016450
     20 H1'2        -0.8750     1.3790    -1.2160 hc         1 2PP       0.016450
     21 H2'1         0.6350     0.0230    -2.7000 hc         1 2PP       0.046950
     22 H2'2        -0.4810    -1.3380    -2.5970 hc         1 2PP       0.046950
     23 H3'1        -0.7930    -0.0880    -4.7290 hc         1 2PP       0.013700
     24 H3'2        -2.2610     0.0310    -3.7340 hc         1 2PP       0.013700
     25 H3'3        -1.1360     1.4060    -3.8290 hc         1 2PP       0.013700
@<TRIPOS>BOND
     1     1     2 1   
     2     1     9 1   
     3     1    10 1   
     4     2     3 1   
     5     2     6 1   
     6     2    11 1   
     7     3     4 1   
     8     3    12 1   
     9     3    13 1   
    10     4     5 1   
    11     4    14 1   
    12     4    15 1   
    13     5    16 1   
    14     5    17 1   
    15     5    18 1   
    16     6     7 1   
    17     6    19 1   
    18     6    20 1   
    19     7     8 1   
    20     7    21 1   
    21     7    22 1   
    22     8    23 1   
    23     8    24 1   
    24     8    25 1   
@<TRIPOS>SUBSTRUCTURE
     1 2PP         1 TEMP              0 ****  ****    0 ROOT
