@<TRIPOS>MOLECULE
2PQ
   84    88     1     0     0
SMALL
abcg2


@<TRIPOS>ATOM
      1 CAB         -9.0910     2.8150     0.1350 ca         1 2PQ      -0.097500
      2 CAC        -10.0610     3.8040     0.2040 ca         1 2PQ      -0.112500
      3 CAD        -11.3930     3.4940    -0.0370 ca         1 2PQ      -0.107000
      4 CAE        -11.7470     2.1880    -0.3480 ca         1 2PQ      -0.112500
      5 CAF        -10.7770     1.1990    -0.4170 ca         1 2PQ      -0.097500
      6 CAA         -9.4340     1.4970    -0.1760 cp         1 2PQ      -0.037000
      7 CAJ         -8.4020     0.4450    -0.2490 cp         1 2PQ      -0.015000
      8 CAK         -8.6800    -0.8630     0.1560 ca         1 2PQ      -0.115000
      9 CAL         -7.7180    -1.8530     0.0750 ca         1 2PQ      -0.068000
     10 CAI         -7.1220     0.7290    -0.7270 ca         1 2PQ      -0.115000
     11 CAH         -6.1480    -0.2540    -0.7830 ca         1 2PQ      -0.068000
     12 CAG         -6.4330    -1.5580    -0.3800 ca         1 2PQ      -0.160600
     13 CBP         -5.4350    -2.6550    -0.5000 c          1 2PQ       0.602300
     14 OBQ         -5.8030    -3.7800    -0.7890 o          1 2PQ      -0.533100
     15 CAP         -4.0050    -2.3570    -0.2730 ca         1 2PQ      -0.220600
     16 CAO         -3.5840    -1.3430     0.5930 ca         1 2PQ      -0.038000
     17 CAN         -2.2460    -1.0960     0.8450 ca         1 2PQ      -0.128300
     18 CBM         -1.8380     0.0180     1.7680 c3         1 2PQ      -0.019100
     19 CBN         -1.5700     1.3280     1.0220 c3         1 2PQ      -0.072400
     20 CBO         -1.1460     2.4480     1.9620 c3         1 2PQ      -0.089100
     21 CAQ         -3.0370    -3.1470    -0.8860 ca         1 2PQ      -0.017000
     22 CAR         -1.6910    -2.9080    -0.6750 ca         1 2PQ      -0.222000
     23 CAM         -1.2890    -1.8840     0.1840 ca         1 2PQ       0.188100
     24 OBL         -0.0080    -1.5920     0.4400 os         1 2PQ      -0.340100
     25 CBK          1.0260    -2.3660    -0.1510 c3         1 2PQ       0.165600
     26 CBJ          2.3490    -1.8450     0.3660 c3         1 2PQ      -0.124400
     27 CBI          3.5180    -2.6490    -0.2050 c3         1 2PQ       0.227800
     28 NAX          4.8160    -2.1920     0.2380 nh         1 2PQ      -0.810400
     29 CAY          5.2000    -2.6210     1.5670 c6         1 2PQ       0.220800
     30 CAZ          6.6930    -2.4640     1.7590 c6         1 2PQ      -0.084400
     31 CBA          7.0800    -1.0050     1.5950 c6         1 2PQ      -0.004100
     32 CAV          6.4470    -0.3990     0.3690 ca         1 2PQ      -0.198300
     33 CAW          5.3430    -1.0090    -0.2580 ca         1 2PQ       0.332000
     34 CBH          4.8050    -0.4070    -1.4090 ca         1 2PQ      -0.244000
     35 CAT          5.3620     0.7540    -1.9110 ca         1 2PQ      -0.052000
     36 CAS          6.4420     1.3720    -1.3010 ca         1 2PQ      -0.205000
     37 CAU          6.9760     0.7920    -0.1510 ca         1 2PQ       0.245100
     38 OBE          7.9920     1.3010     0.5650 os         1 2PQ      -0.353100
     39 CBD          8.7080     2.4820     0.1880 c3         1 2PQ       0.040000
     40 CBF          7.8540     3.7260     0.4100 c3         1 2PQ      -0.075100
     41 CBG          9.8890     2.5090     1.1570 c3         1 2PQ      -0.075100
     42 CBB          9.2980     2.3610    -1.2470 c          1 2PQ       0.707000
     43 OBR          9.6620     1.2280    -1.6000 o          1 2PQ      -0.710000
     44 OBC          9.4080     3.4240    -1.8880 o          1 2PQ      -0.710000
     45 HAB         -8.0600     3.0700     0.3450 ha         1 2PQ       0.115500
     46 HAC         -9.7740     4.8170     0.4540 ha         1 2PQ       0.112000
     47 HAD        -12.1500     4.2650     0.0180 ha         1 2PQ       0.111000
     48 HAE        -12.7810     1.9370    -0.5450 ha         1 2PQ       0.112000
     49 HAF        -11.0680     0.1910    -0.6820 ha         1 2PQ       0.115500
     50 HAK         -9.6560    -1.1110     0.5510 ha         1 2PQ       0.116500
     51 HAL         -7.9620    -2.8580     0.3910 ha         1 2PQ       0.127000
     52 HAI         -6.8820     1.7240    -1.0800 ha         1 2PQ       0.116500
     53 HAH         -5.1710    -0.0030    -1.1750 ha         1 2PQ       0.127000
     54 HAO         -4.3180    -0.7430     1.1170 ha         1 2PQ       0.118000
     55 HBM         -2.6360     0.1830     2.4960 hc         1 2PQ       0.048700
     56 HBMA        -0.9520    -0.2630     2.3410 hc         1 2PQ       0.048700
     57 HBN         -0.7990     1.1690     0.2640 hc         1 2PQ       0.041700
     58 HBNA        -2.4760     1.6210     0.4850 hc         1 2PQ       0.041700
     59 HBO         -0.2110     2.2070     2.4700 hc         1 2PQ       0.031700
     60 HBOA        -0.9970     3.3830     1.4210 hc         1 2PQ       0.031700
     61 HBOB        -1.9020     2.6270     2.7290 hc         1 2PQ       0.031700
     62 HAQ         -3.3300    -3.9480    -1.5520 ha         1 2PQ       0.126000
     63 HAR         -0.9670    -3.5260    -1.1870 ha         1 2PQ       0.123000
     64 HBK          0.9040    -3.4240     0.1090 h1         1 2PQ       0.033700
     65 HBKA         0.9810    -2.2860    -1.2430 h1         1 2PQ       0.033700
     66 HBJ          2.4600    -0.7910     0.1000 hc         1 2PQ       0.066700
     67 HBJA         2.3630    -1.9080     1.4570 hc         1 2PQ       0.066700
     68 HBI          3.4220    -3.6950     0.0950 h1         1 2PQ       0.042700
     69 HBIA         3.4770    -2.6570    -1.2970 h1         1 2PQ       0.042700
     70 HAY          4.6690    -2.0580     2.3490 h1         1 2PQ       0.019200
     71 HAYA         4.9100    -3.6680     1.6800 h1         1 2PQ       0.019200
     72 HAZ          6.9770    -2.8250     2.7490 hc         1 2PQ       0.042200
     73 HAZA         7.2170    -3.0850     1.0280 hc         1 2PQ       0.042200
     74 HBA          6.7760    -0.4500     2.4890 hc         1 2PQ       0.050700
     75 HBAA         8.1660    -0.9120     1.5440 hc         1 2PQ       0.050700
     76 HBH          3.9540    -0.8320    -1.9210 ha         1 2PQ       0.089000
     77 HAT          4.9340     1.1980    -2.8010 ha         1 2PQ       0.093000
     78 HAS          6.8370     2.2830    -1.7250 ha         1 2PQ       0.150000
     79 HBF          7.4440     3.7250     1.4220 hc         1 2PQ       0.027200
     80 HBFA         8.4640     4.6220     0.3040 hc         1 2PQ       0.027200
     81 HBFB         7.0230     3.8150    -0.2880 hc         1 2PQ       0.027200
     82 HBG         10.5020     1.6130     1.0540 hc         1 2PQ       0.027200
     83 HBGA        10.5200     3.3760     0.9620 hc         1 2PQ       0.027200
     84 HBGB         9.5430     2.5740     2.1910 hc         1 2PQ       0.027200
@<TRIPOS>BOND
     1     1     2 ar  
     2     1     6 ar  
     3     1    45 1   
     4     2     3 ar  
     5     2    46 1   
     6     3     4 ar  
     7     3    47 1   
     8     4     5 ar  
     9     4    48 1   
    10     5     6 ar  
    11     5    49 1   
    12     6     7 1   
    13     7     8 ar  
    14     7    10 ar  
    15     8     9 ar  
    16     8    50 1   
    17     9    12 ar  
    18     9    51 1   
    19    10    11 ar  
    20    10    52 1   
    21    11    12 ar  
    22    11    53 1   
    23    12    13 1   
    24    13    14 2   
    25    13    15 1   
    26    15    16 ar  
    27    15    21 ar  
    28    16    17 ar  
    29    16    54 1   
    30    17    18 1   
    31    17    23 ar  
    32    18    19 1   
    33    18    55 1   
    34    18    56 1   
    35    19    20 1   
    36    19    57 1   
    37    19    58 1   
    38    20    59 1   
    39    20    60 1   
    40    20    61 1   
    41    21    22 ar  
    42    21    62 1   
    43    22    23 ar  
    44    22    63 1   
    45    23    24 1   
    46    24    25 1   
    47    25    26 1   
    48    25    64 1   
    49    25    65 1   
    50    26    27 1   
    51    26    66 1   
    52    26    67 1   
    53    27    28 1   
    54    27    68 1   
    55    27    69 1   
    56    28    29 1   
    57    28    33 1   
    58    29    30 1   
    59    29    70 1   
    60    29    71 1   
    61    30    31 1   
    62    30    72 1   
    63    30    73 1   
    64    31    32 1   
    65    31    74 1   
    66    31    75 1   
    67    32    33 ar  
    68    32    37 ar  
    69    33    34 ar  
    70    34    35 ar  
    71    34    76 1   
    72    35    36 ar  
    73    35    77 1   
    74    36    37 ar  
    75    36    78 1   
    76    37    38 1   
    77    38    39 1   
    78    39    40 1   
    79    39    41 1   
    80    39    42 1   
    81    40    79 1   
    82    40    80 1   
    83    40    81 1   
    84    41    82 1   
    85    41    83 1   
    86    41    84 1   
    87    42    43 1   
    88    42    44 1   
@<TRIPOS>SUBSTRUCTURE
     1 2PQ         1 TEMP              0 ****  ****    0 ROOT
