@<TRIPOS>MOLECULE
2PQ
   84    88     1     0     0
SMALL
No Charge or Current Charge


@<TRIPOS>ATOM
      1 CAB         -9.3970     2.7210     0.0530 ca         1 2PQ      -0.097500
      2 CAC        -10.3730     3.7300     0.1080 ca         1 2PQ      -0.112500
      3 CAD        -11.6940     3.4540    -0.2800 ca         1 2PQ      -0.107000
      4 CAE        -12.0360     2.1670    -0.7230 ca         1 2PQ      -0.112500
      5 CAF        -11.0600     1.1570    -0.7770 ca         1 2PQ      -0.097500
      6 CAA         -9.7190     1.4120    -0.3910 cp         1 2PQ      -0.037000
      7 CAJ         -8.6770     0.3360    -0.4490 cp         1 2PQ      -0.015000
      8 CAK         -9.0010    -1.0150    -0.1730 ca         1 2PQ      -0.115000
      9 CAL         -8.0250    -2.0250    -0.2260 ca         1 2PQ      -0.068000
     10 CAI         -7.3350     0.6330    -0.7880 ca         1 2PQ      -0.115000
     11 CAH         -6.3550    -0.3730    -0.8430 ca         1 2PQ      -0.068000
     12 CAG         -6.6880    -1.7130    -0.5480 ca         1 2PQ      -0.160600
     13 CBP         -5.6500    -2.8120    -0.6130 c          1 2PQ       0.602300
     14 OBQ         -5.9690    -3.9500    -0.9400 o          1 2PQ      -0.533100
     15 CAP         -4.2150    -2.4920    -0.2700 ca         1 2PQ      -0.220600
     16 CAO         -3.8970    -1.5260     0.7090 ca         1 2PQ      -0.038000
     17 CAN         -2.5570    -1.2360     1.0290 ca         1 2PQ      -0.128300
     18 CBM         -2.2580    -0.1700     2.0820 c3         1 2PQ      -0.019100
     19 CBN         -1.9830     1.2110     1.4480 c3         1 2PQ      -0.072400
     20 CBO         -1.6820     2.3070     2.4890 c3         1 2PQ      -0.089100
     21 CAQ         -3.1710    -3.1900    -0.9070 ca         1 2PQ      -0.017000
     22 CAR         -1.8310    -2.9050    -0.5960 ca         1 2PQ      -0.222000
     23 CAM         -1.5160    -1.9240     0.3680 ca         1 2PQ       0.188100
     24 OBL         -0.2080    -1.6140     0.6920 os         1 2PQ      -0.340100
     25 CBK          0.9150    -2.2400     0.0530 c3         1 2PQ       0.165600
     26 CBJ          2.1890    -1.6270     0.6570 c3         1 2PQ      -0.124400
     27 CBI          3.4720    -2.2170     0.0450 c3         1 2PQ       0.227800
     28 NAX          4.7090    -1.6210     0.6010 nh         1 2PQ      -0.810400
     29 CAY          5.2750    -2.2560     1.8160 c6         1 2PQ       0.220800
     30 CAZ          6.7920    -2.4420     1.6570 c6         1 2PQ      -0.084400
     31 CBA          7.4740    -1.0870     1.3970 c6         1 2PQ      -0.004100
     32 CAV          6.7480    -0.2530     0.3270 ca         1 2PQ      -0.198300
     33 CAW          5.4070    -0.5490    -0.0290 ca         1 2PQ       0.332000
     34 CBH          4.7670     0.2490    -1.0000 ca         1 2PQ      -0.244000
     35 CAT          5.4390     1.3110    -1.6160 ca         1 2PQ      -0.052000
     36 CAS          6.7590     1.6020    -1.2590 ca         1 2PQ      -0.205000
     37 CAU          7.4210     0.8320    -0.2800 ca         1 2PQ       0.245100
     38 OBE          8.7250     1.0880     0.1280 os         1 2PQ      -0.353100
     39 CBD          9.5090     2.2790    -0.1840 c3         1 2PQ       0.040000
     40 CBF          8.7900     3.5120     0.4420 c3         1 2PQ      -0.075100
     41 CBG         10.8470     2.0440     0.5620 c3         1 2PQ      -0.075100
     42 CBB          9.8390     2.4450    -1.7210 c          1 2PQ       0.707000
     43 OBR          9.7490     1.4730    -2.4610 o          1 2PQ      -0.710000
     44 OBC         10.0980     3.5660    -2.1430 o          1 2PQ      -0.710000
     45 HAB         -8.3830     2.9530     0.3710 ha         1 2PQ       0.115500
     46 HAC        -10.1060     4.7260     0.4550 ha         1 2PQ       0.112000
     47 HAD        -12.4490     4.2360    -0.2370 ha         1 2PQ       0.111000
     48 HAE        -13.0580     1.9510    -1.0270 ha         1 2PQ       0.112000
     49 HAF        -11.3440     0.1710    -1.1360 ha         1 2PQ       0.115500
     50 HAK        -10.0180    -1.2850     0.0990 ha         1 2PQ       0.116500
     51 HAL         -8.3090    -3.0520    -0.0050 ha         1 2PQ       0.127000
     52 HAI         -7.0500     1.6540    -1.0310 ha         1 2PQ       0.116500
     53 HAH         -5.3410    -0.1060    -1.1320 ha         1 2PQ       0.127000
     54 HAO         -4.6930    -1.0010     1.2330 ha         1 2PQ       0.118000
     55 HBM         -3.1000    -0.0800     2.7800 hc         1 2PQ       0.048700
     56 HBMA        -1.3960    -0.4670     2.6940 hc         1 2PQ       0.048700
     57 HBN         -1.1340     1.1310     0.7590 hc         1 2PQ       0.041700
     58 HBNA        -2.8520     1.5130     0.8510 hc         1 2PQ       0.041700
     59 HBO         -0.7940     2.0480     3.0790 hc         1 2PQ       0.031700
     60 HBOA        -1.4940     3.2650     1.9900 hc         1 2PQ       0.031700
     61 HBOB        -2.5290     2.4350     3.1730 hc         1 2PQ       0.031700
     62 HAQ         -3.3950    -3.9490    -1.6550 ha         1 2PQ       0.126000
     63 HAR         -1.0540    -3.4570    -1.1150 ha         1 2PQ       0.123000
     64 HBK          0.9080    -3.3240     0.2300 h1         1 2PQ       0.033700
     65 HBKA         0.8970    -2.0570    -1.0300 h1         1 2PQ       0.033700
     66 HBJ          2.1750    -0.5420     0.4990 hc         1 2PQ       0.066700
     67 HBJA         2.1940    -1.7990     1.7390 hc         1 2PQ       0.066700
     68 HBI          3.4760    -3.3020     0.2200 h1         1 2PQ       0.042700
     69 HBIA         3.4480    -2.0950    -1.0460 h1         1 2PQ       0.042700
     70 HAY          5.0690    -1.6280     2.6950 h1         1 2PQ       0.019200
     71 HAYA         4.8140    -3.2380     1.9970 h1         1 2PQ       0.019200
     72 HAZ          7.2120    -2.9120     2.5570 hc         1 2PQ       0.042200
     73 HAZA         6.9910    -3.1250     0.8200 hc         1 2PQ       0.042200
     74 HBA          7.5090    -0.5120     2.3330 hc         1 2PQ       0.050700
     75 HBAA         8.5180    -1.2690     1.1060 hc         1 2PQ       0.050700
     76 HBH          3.7380     0.0640    -1.2860 ha         1 2PQ       0.089000
     77 HAT          4.9320     1.9130    -2.3670 ha         1 2PQ       0.093000
     78 HAS          7.2510     2.4270    -1.7600 ha         1 2PQ       0.150000
     79 HBF          8.4800     3.3000     1.4720 hc         1 2PQ       0.027200
     80 HBFA         9.4620     4.3790     0.4690 hc         1 2PQ       0.027200
     81 HBFB         7.9030     3.8070    -0.1270 hc         1 2PQ       0.027200
     82 HBG         11.3570     1.1540     0.1720 hc         1 2PQ       0.027200
     83 HBGA        11.5190     2.9010     0.4330 hc         1 2PQ       0.027200
     84 HBGB        10.6800     1.9010     1.6360 hc         1 2PQ       0.027200
@<TRIPOS>BOND
     1     1     2 ar  
     2     1     6 ar  
     3     1    45 1   
     4     2     3 ar  
     5     2    46 1   
     6     3     4 ar  
     7     3    47 1   
     8     4     5 ar  
     9     4    48 1   
    10     5     6 ar  
    11     5    49 1   
    12     6     7 1   
    13     7     8 ar  
    14     7    10 ar  
    15     8     9 ar  
    16     8    50 1   
    17     9    12 ar  
    18     9    51 1   
    19    10    11 ar  
    20    10    52 1   
    21    11    12 ar  
    22    11    53 1   
    23    12    13 1   
    24    13    14 2   
    25    13    15 1   
    26    15    16 ar  
    27    15    21 ar  
    28    16    17 ar  
    29    16    54 1   
    30    17    18 1   
    31    17    23 ar  
    32    18    19 1   
    33    18    55 1   
    34    18    56 1   
    35    19    20 1   
    36    19    57 1   
    37    19    58 1   
    38    20    59 1   
    39    20    60 1   
    40    20    61 1   
    41    21    22 ar  
    42    21    62 1   
    43    22    23 ar  
    44    22    63 1   
    45    23    24 1   
    46    24    25 1   
    47    25    26 1   
    48    25    64 1   
    49    25    65 1   
    50    26    27 1   
    51    26    66 1   
    52    26    67 1   
    53    27    28 1   
    54    27    68 1   
    55    27    69 1   
    56    28    29 1   
    57    28    33 1   
    58    29    30 1   
    59    29    70 1   
    60    29    71 1   
    61    30    31 1   
    62    30    72 1   
    63    30    73 1   
    64    31    32 1   
    65    31    74 1   
    66    31    75 1   
    67    32    33 ar  
    68    32    37 ar  
    69    33    34 ar  
    70    34    35 ar  
    71    34    76 1   
    72    35    36 ar  
    73    35    77 1   
    74    36    37 ar  
    75    36    78 1   
    76    37    38 1   
    77    38    39 1   
    78    39    40 1   
    79    39    41 1   
    80    39    42 1   
    81    40    79 1   
    82    40    80 1   
    83    40    81 1   
    84    41    82 1   
    85    41    83 1   
    86    41    84 1   
    87    42    43 1   
    88    42    44 1   
@<TRIPOS>SUBSTRUCTURE
     1 2PQ         1 TEMP              0 ****  ****    0 ROOT
