@<TRIPOS>MOLECULE
2PS
   43    44     1     0     0
SMALL
abcg2


@<TRIPOS>ATOM
      1 C1           2.6270    -0.2260     0.1780 c3         1 2PS      -0.066400
      2 C9           1.2380    -0.0960     0.7990 c3         1 2PS       0.172500
      3 C32          0.2140    -0.8240    -0.0880 c3         1 2PS      -0.093400
      4 C33         -1.2040    -0.6110     0.4240 c3         1 2PS      -0.348400
      5 S34         -2.3920    -1.3780    -0.6580 s6         1 2PS       1.312700
      6 O37         -2.4090    -0.6920    -1.9330 o          1 2PS      -0.518500
      7 O36         -2.2530    -2.8160    -0.6170 o          1 2PS      -0.518500
      8 O35         -3.8060    -1.1180     0.1080 os         1 2PS      -0.439800
      9 N10          1.2640    -0.5410     2.1810 n8         1 2PS      -1.005200
     10 C2           3.6920     0.5930     0.9070 c3         1 2PS      -0.025100
     11 C3           5.0330     0.4900     0.2350 ca         1 2PS      -0.079300
     12 C4           5.3760     1.3480    -0.8080 ca         1 2PS      -0.108500
     13 C5           6.5990     1.2360    -1.4540 ca         1 2PS      -0.110000
     14 C6           7.5050     0.2560    -1.0670 ca         1 2PS      -0.112000
     15 C7           7.1750    -0.6080    -0.0310 ca         1 2PS      -0.110000
     16 C8           5.9490    -0.4890     0.6130 ca         1 2PS      -0.108500
     17 C36         -4.3530     0.1580     0.1220 ca         1 2PS       0.103100
     18 C37         -5.0820     0.6090    -0.9670 ca         1 2PS      -0.111500
     19 C38         -5.6670     1.8660    -0.9040 ca         1 2PS      -0.094500
     20 C39         -5.5210     2.6550     0.2300 ca         1 2PS      -0.103000
     21 C40         -4.7900     2.1830     1.3130 ca         1 2PS      -0.094500
     22 C41         -4.1990     0.9280     1.2640 ca         1 2PS      -0.111500
     23 H11          2.9220    -1.2810     0.1610 hc         1 2PS       0.044200
     24 H12          2.5750     0.0960    -0.8660 hc         1 2PS       0.044200
     25 H91          0.9720     0.9680     0.8090 h1         1 2PS       0.058700
     26 H321         0.2970    -0.4460    -1.1090 hc         1 2PS       0.064200
     27 H322         0.4510    -1.8910    -0.1130 hc         1 2PS       0.064200
     28 H331        -1.3580    -1.0510     1.4110 h1         1 2PS       0.100200
     29 H332        -1.4500     0.4530     0.4690 h1         1 2PS       0.100200
     30 H10          0.3910    -0.3350     2.6500 hn         1 2PS       0.398500
     31 H21A         3.3780     1.6400     0.9400 hc         1 2PS       0.055700
     32 H22          3.7650     0.2520     1.9400 hc         1 2PS       0.055700
     33 H41          4.6770     2.1190    -1.1150 ha         1 2PS       0.110000
     34 H51          6.8480     1.9170    -2.2580 ha         1 2PS       0.111000
     35 H61          8.4610     0.1690    -1.5660 ha         1 2PS       0.111000
     36 H71          7.8750    -1.3710     0.2830 ha         1 2PS       0.111000
     37 H81          5.7060    -1.1640     1.4250 ha         1 2PS       0.110000
     38 H371        -5.2040    -0.0140    -1.8420 ha         1 2PS       0.133000
     39 H381        -6.2410     2.2280    -1.7460 ha         1 2PS       0.122500
     40 H391        -5.9810     3.6320     0.2730 ha         1 2PS       0.121000
     41 H401        -4.6790     2.7910     2.2010 ha         1 2PS       0.122500
     42 H411        -3.6370     0.5480     2.1080 ha         1 2PS       0.133000
     43 H2           1.3870    -1.5460     2.2230 hn         1 2PS       0.398500
@<TRIPOS>BOND
     1     1     2 1   
     2     1    10 1   
     3     1    23 1   
     4     1    24 1   
     5     2     3 1   
     6     2     9 1   
     7     2    25 1   
     8     3     4 1   
     9     3    26 1   
    10     3    27 1   
    11     4     5 1   
    12     4    28 1   
    13     4    29 1   
    14     5     6 2   
    15     5     7 2   
    16     5     8 1   
    17     8    17 1   
    18     9    30 1   
    19     9    43 1   
    20    10    11 1   
    21    10    31 1   
    22    10    32 1   
    23    11    12 ar  
    24    11    16 ar  
    25    12    13 ar  
    26    12    33 1   
    27    13    14 ar  
    28    13    34 1   
    29    14    15 ar  
    30    14    35 1   
    31    15    16 ar  
    32    15    36 1   
    33    16    37 1   
    34    17    18 ar  
    35    17    22 ar  
    36    18    19 ar  
    37    18    38 1   
    38    19    20 ar  
    39    19    39 1   
    40    20    21 ar  
    41    20    40 1   
    42    21    22 ar  
    43    21    41 1   
    44    22    42 1   
@<TRIPOS>SUBSTRUCTURE
     1 2PS         1 TEMP              0 ****  ****    0 ROOT
