@<TRIPOS>MOLECULE
2PS
   43    44     1     0     0
SMALL
No Charge or Current Charge


@<TRIPOS>ATOM
      1 C1           2.7180    -0.2450     0.1910 c3         1 2PS      -0.066400
      2 C9           1.3020    -0.1290     0.8130 c3         1 2PS       0.172500
      3 C32          0.2220    -0.8020    -0.0700 c3         1 2PS      -0.093400
      4 C33         -1.2310    -0.6480     0.4730 c3         1 2PS      -0.348400
      5 S34         -2.4970    -1.3210    -0.6330 s6         1 2PS       1.312700
      6 O37         -2.5600    -0.4920    -1.8440 o          1 2PS      -0.518500
      7 O36         -2.3200    -2.7770    -0.7250 o          1 2PS      -0.518500
      8 O35         -3.7950    -1.0010     0.3370 os         1 2PS      -0.439800
      9 N10          1.2720    -0.7050     2.1690 n8         1 2PS      -1.005200
     10 C2           3.8170     0.5310     0.9550 c3         1 2PS      -0.025100
     11 C3           5.1650     0.4550     0.2490 ca         1 2PS      -0.079300
     12 C4           5.5420     1.4500    -0.6750 ca         1 2PS      -0.108500
     13 C5           6.7840     1.3760    -1.3290 ca         1 2PS      -0.110000
     14 C6           7.6570     0.3060    -1.0640 ca         1 2PS      -0.112000
     15 C7           7.2850    -0.6900    -0.1450 ca         1 2PS      -0.110000
     16 C8           6.0430    -0.6160     0.5090 ca         1 2PS      -0.108500
     17 C36         -4.4290     0.2110     0.2310 ca         1 2PS       0.103100
     18 C37         -5.3430     0.4460    -0.8130 ca         1 2PS      -0.111500
     19 C38         -6.0060     1.6830    -0.8990 ca         1 2PS      -0.094500
     20 C39         -5.7640     2.6790     0.0640 ca         1 2PS      -0.103000
     21 C40         -4.8640     2.4360     1.1180 ca         1 2PS      -0.094500
     22 C41         -4.2010     1.1990     1.2040 ca         1 2PS      -0.111500
     23 H11          3.0040    -1.3010     0.1210 hc         1 2PS       0.044200
     24 H12          2.6810     0.1370    -0.8370 hc         1 2PS       0.044200
     25 H91          1.0540     0.9400     0.8940 h1         1 2PS       0.058700
     26 H321         0.2740    -0.3570    -1.0720 hc         1 2PS       0.064200
     27 H322         0.4600    -1.8670    -0.1900 hc         1 2PS       0.064200
     28 H331        -1.3620    -1.1780     1.4220 h1         1 2PS       0.100200
     29 H332        -1.4820     0.4100     0.6050 h1         1 2PS       0.100200
     30 H10          0.3110    -0.6450     2.5220 hn         1 2PS       0.398500
     31 H21A         3.5080     1.5780     1.0640 hc         1 2PS       0.055700
     32 H22          3.9080     0.1340     1.9730 hc         1 2PS       0.055700
     33 H41          4.8720     2.2800    -0.8870 ha         1 2PS       0.110000
     34 H51          7.0700     2.1470    -2.0410 ha         1 2PS       0.111000
     35 H61          8.6180     0.2490    -1.5700 ha         1 2PS       0.111000
     36 H71          7.9590    -1.5190     0.0600 ha         1 2PS       0.111000
     37 H81          5.7620    -1.3920     1.2170 ha         1 2PS       0.110000
     38 H371        -5.5370    -0.3260    -1.5530 ha         1 2PS       0.133000
     39 H381        -6.7080     1.8690    -1.7090 ha         1 2PS       0.122500
     40 H391        -6.2770     3.6360    -0.0020 ha         1 2PS       0.121000
     41 H401        -4.6840     3.2040     1.8680 ha         1 2PS       0.122500
     42 H411        -3.5140     1.0060     2.0240 ha         1 2PS       0.133000
     43 H2           1.4380    -1.7140     2.1020 hn         1 2PS       0.398500
@<TRIPOS>BOND
     1     1     2 1   
     2     1    10 1   
     3     1    23 1   
     4     1    24 1   
     5     2     3 1   
     6     2     9 1   
     7     2    25 1   
     8     3     4 1   
     9     3    26 1   
    10     3    27 1   
    11     4     5 1   
    12     4    28 1   
    13     4    29 1   
    14     5     6 2   
    15     5     7 2   
    16     5     8 1   
    17     8    17 1   
    18     9    30 1   
    19     9    43 1   
    20    10    11 1   
    21    10    31 1   
    22    10    32 1   
    23    11    12 ar  
    24    11    16 ar  
    25    12    13 ar  
    26    12    33 1   
    27    13    14 ar  
    28    13    34 1   
    29    14    15 ar  
    30    14    35 1   
    31    15    16 ar  
    32    15    36 1   
    33    16    37 1   
    34    17    18 ar  
    35    17    22 ar  
    36    18    19 ar  
    37    18    38 1   
    38    19    20 ar  
    39    19    39 1   
    40    20    21 ar  
    41    20    40 1   
    42    21    22 ar  
    43    21    41 1   
    44    22    42 1   
@<TRIPOS>SUBSTRUCTURE
     1 2PS         1 TEMP              0 ****  ****    0 ROOT
