@<TRIPOS>MOLECULE
2PU
   49    53     1     0     0
SMALL
No Charge or Current Charge


@<TRIPOS>ATOM
      1 C1          -0.5030    -0.1800    -3.5030 ca         1 2PU      -0.127300
      2 C2           0.9590    -0.4550    -3.8490 c5         1 2PU       0.129000
      3 C3          -1.2730    -0.0680    -4.6560 ca         1 2PU      -0.138600
      4 C4          -1.0940    -0.0830    -2.2290 ca         1 2PU       0.003000
      5 N5           0.8920    -0.4080    -5.3230 n          1 2PU      -0.393800
      6 C6           1.8700     0.7680    -3.5980 c5         1 2PU      -0.091400
      7 C7          -0.3840    -0.1550    -5.8350 c          1 2PU       0.572600
      8 C8          -2.6530     0.1650    -4.6110 ca         1 2PU      -0.059000
      9 C9          -2.4930     0.1410    -2.1660 ca         1 2PU      -0.094000
     10 N10         -0.2620    -0.2280    -1.0850 ns         1 2PU      -0.174000
     11 C11          2.1180     0.1250    -5.9420 c5         1 2PU       0.096000
     12 C12          2.9630     0.4880    -4.6780 c5         1 2PU      -0.100400
     13 O13         -0.6760     0.0410    -7.0070 o          1 2PU      -0.527000
     14 C14         -3.2630     0.2640    -3.3460 ca         1 2PU      -0.101000
     15 C15         -0.5150    -0.0980     0.2710 c          1 2PU       0.672100
     16 N16          0.6050    -0.3500     1.0250 ns         1 2PU      -0.488400
     17 O17         -1.5970     0.2090     0.7480 o          1 2PU      -0.603100
     18 C18          0.7650    -0.3220     2.3870 cc         1 2PU       0.390900
     19 C19         -0.2100    -0.0200     3.3540 cc         1 2PU      -0.226000
     20 N20          1.9460    -0.6030     2.8940 nd         1 2PU      -0.583800
     21 C21          0.4170    -0.1180     4.5560 cd         1 2PU      -0.126300
     22 N22          1.7340    -0.4780     4.2730 na         1 2PU       0.021800
     23 C23         -0.3010     0.1340     5.8630 c5         1 2PU       0.221800
     24 C24         -0.1070     1.6040     6.2980 c5         1 2PU      -0.076400
     25 N25          0.3110    -0.5780     6.9930 n7         1 2PU      -0.879400
     26 C26         -0.5180     1.5430     7.7990 c5         1 2PU      -0.082400
     27 C27         -0.3090     0.0450     8.1840 c5         1 2PU       0.153800
     28 H2           1.3450    -1.4110    -3.4680 h1         1 2PU       0.068700
     29 H61          2.2710     0.7960    -2.5790 hc         1 2PU       0.060200
     30 H62          1.3510     1.7170    -3.7840 hc         1 2PU       0.060200
     31 H8          -3.2350     0.2700    -5.5240 ha         1 2PU       0.137000
     32 H9          -3.0080     0.2160    -1.2140 ha         1 2PU       0.140000
     33 H10          0.6920    -0.4740    -1.3090 hn         1 2PU       0.151000
     34 H111         2.6180    -0.6150    -6.5810 h1         1 2PU       0.059200
     35 H112         1.8960     1.0170    -6.5440 h1         1 2PU       0.059200
     36 H121         3.6020    -0.3520    -4.3810 hc         1 2PU       0.054200
     37 H122         3.6190     1.3480    -4.8500 hc         1 2PU       0.054200
     38 H14         -4.3340     0.4390    -3.2770 ha         1 2PU       0.121000
     39 H16          1.4280    -0.5920     0.4960 hn         1 2PU       0.328500
     40 H19         -1.2460     0.2390     3.1750 ha         1 2PU       0.169000
     41 H22          2.4690    -0.6410     4.9610 hn         1 2PU       0.388000
     42 H23         -1.3680    -0.1190     5.7640 h1         1 2PU       0.048700
     43 H241         0.9380     1.9190     6.1880 hc         1 2PU       0.056200
     44 H242        -0.7230     2.2990     5.7170 hc         1 2PU       0.056200
     45 H25          0.0820    -1.5790     6.9510 hn         1 2PU       0.420000
     46 H261         0.0940     2.2130     8.4130 hc         1 2PU       0.051200
     47 H262        -1.5630     1.8370     7.9440 hc         1 2PU       0.051200
     48 H271         0.3230    -0.0740     9.0750 h1         1 2PU       0.039700
     49 H272        -1.2790    -0.4270     8.3970 h1         1 2PU       0.039700
@<TRIPOS>BOND
     1     1     2 1   
     2     1     3 ar  
     3     1     4 ar  
     4     2     5 1   
     5     2     6 1   
     6     2    28 1   
     7     3     7 1   
     8     3     8 ar  
     9     4     9 ar  
    10     4    10 1   
    11     5     7 1   
    12     5    11 1   
    13     6    12 1   
    14     6    29 1   
    15     6    30 1   
    16     7    13 2   
    17     8    14 ar  
    18     8    31 1   
    19     9    14 ar  
    20     9    32 1   
    21    10    15 1   
    22    10    33 1   
    23    11    12 1   
    24    11    34 1   
    25    11    35 1   
    26    12    36 1   
    27    12    37 1   
    28    14    38 1   
    29    15    16 1   
    30    15    17 2   
    31    16    18 1   
    32    16    39 1   
    33    18    19 1   
    34    18    20 2   
    35    19    21 2   
    36    19    40 1   
    37    20    22 1   
    38    21    22 1   
    39    21    23 1   
    40    22    41 1   
    41    23    24 1   
    42    23    25 1   
    43    23    42 1   
    44    24    26 1   
    45    24    43 1   
    46    24    44 1   
    47    25    27 1   
    48    25    45 1   
    49    26    27 1   
    50    26    46 1   
    51    26    47 1   
    52    27    48 1   
    53    27    49 1   
@<TRIPOS>SUBSTRUCTURE
     1 2PU         1 TEMP              0 ****  ****    0 ROOT
