@<TRIPOS>MOLECULE
2PU
   49    53     1     0     0
SMALL
abcg2


@<TRIPOS>ATOM
      1 C1          -0.4620    -0.3080    -3.4870 ca         1 2PU      -0.127300
      2 C2           0.9960    -0.2530    -3.8110 c5         1 2PU       0.129000
      3 C3          -1.1940    -0.0280    -4.6290 ca         1 2PU      -0.138600
      4 C4          -1.0950    -0.6100    -2.2880 ca         1 2PU       0.003000
      5 N5           0.9930     0.0590    -5.2320 n          1 2PU      -0.393800
      6 C6           1.8600     0.8660    -3.2300 c5         1 2PU      -0.091400
      7 C7          -0.2490     0.2900    -5.7270 c          1 2PU       0.572600
      8 C8          -2.5770     0.0070    -4.6260 ca         1 2PU      -0.059000
      9 C9          -2.4920    -0.5940    -2.2770 ca         1 2PU      -0.094000
     10 N10         -0.3190    -0.9490    -1.1770 ns         1 2PU      -0.174000
     11 C11          2.1980     0.7670    -5.6380 c5         1 2PU       0.096000
     12 C12          2.9380     1.0080    -4.3090 c5         1 2PU      -0.100400
     13 O13         -0.5160     0.7100    -6.8390 o          1 2PU      -0.527000
     14 C14         -3.2130    -0.2810    -3.4270 ca         1 2PU      -0.101000
     15 C15         -0.5850    -0.5700     0.1150 c          1 2PU       0.672100
     16 N16          0.3460    -1.0200     1.0020 ns         1 2PU      -0.488400
     17 O17         -1.5520     0.0990     0.4290 o          1 2PU      -0.603100
     18 C18          0.3460    -0.7720     2.3670 cc         1 2PU       0.390900
     19 C19         -0.5920    -0.1060     3.1810 cc         1 2PU      -0.226000
     20 N20          1.3690    -1.2260     3.0680 nd         1 2PU      -0.583800
     21 C21         -0.0490    -0.1890     4.4470 cd         1 2PU      -0.126300
     22 N22          1.1040    -0.8540     4.3220 na         1 2PU       0.021800
     23 C23         -0.5050     0.3570     5.7570 c5         1 2PU       0.221800
     24 C24          0.0050     1.7930     6.0310 c5         1 2PU      -0.076400
     25 N25          0.0470    -0.4150     6.8610 n7         1 2PU      -0.879400
     26 C26          0.4140     1.7930     7.5150 c5         1 2PU      -0.082400
     27 C27         -0.0610     0.4380     8.0340 c5         1 2PU       0.153800
     28 H2           1.4760    -1.2230    -3.6310 h1         1 2PU       0.068700
     29 H61          2.2700     0.6250    -2.2500 hc         1 2PU       0.060200
     30 H62          1.2680     1.7800    -3.1410 hc         1 2PU       0.060200
     31 H8          -3.1400     0.2440    -5.5190 ha         1 2PU       0.137000
     32 H9          -3.0300    -0.8370    -1.3730 ha         1 2PU       0.140000
     33 H10          0.5600    -1.4030    -1.3710 hn         1 2PU       0.151000
     34 H111         2.7960     0.1810    -6.3370 h1         1 2PU       0.059200
     35 H112         1.9240     1.7010    -6.1320 h1         1 2PU       0.059200
     36 H121         3.7080     0.2480    -4.1650 hc         1 2PU       0.054200
     37 H122         3.4290     1.9800    -4.2890 hc         1 2PU       0.054200
     38 H14         -4.2940    -0.2790    -3.3750 ha         1 2PU       0.121000
     39 H16          1.1230    -1.5720     0.6700 hn         1 2PU       0.328500
     40 H19         -1.5200     0.3580     2.9020 ha         1 2PU       0.169000
     41 H22          1.7250    -1.1070     5.0750 hn         1 2PU       0.388000
     42 H23         -1.6040     0.3690     5.7610 h1         1 2PU       0.048700
     43 H241         0.8540     2.0360     5.3900 hc         1 2PU       0.056200
     44 H242        -0.7780     2.5180     5.8140 hc         1 2PU       0.056200
     45 H25         -0.4510    -1.2880     6.9840 hn         1 2PU       0.420000
     46 H261         1.4960     1.8790     7.6130 hc         1 2PU       0.051200
     47 H262        -0.0310     2.6170     8.0730 hc         1 2PU       0.051200
     48 H271         0.5530     0.0560     8.8510 h1         1 2PU       0.039700
     49 H272        -1.0930     0.5160     8.4030 h1         1 2PU       0.039700
@<TRIPOS>BOND
     1     1     2 1   
     2     1     3 ar  
     3     1     4 ar  
     4     2     5 1   
     5     2     6 1   
     6     2    28 1   
     7     3     7 1   
     8     3     8 ar  
     9     4     9 ar  
    10     4    10 1   
    11     5     7 1   
    12     5    11 1   
    13     6    12 1   
    14     6    29 1   
    15     6    30 1   
    16     7    13 2   
    17     8    14 ar  
    18     8    31 1   
    19     9    14 ar  
    20     9    32 1   
    21    10    15 1   
    22    10    33 1   
    23    11    12 1   
    24    11    34 1   
    25    11    35 1   
    26    12    36 1   
    27    12    37 1   
    28    14    38 1   
    29    15    16 1   
    30    15    17 2   
    31    16    18 1   
    32    16    39 1   
    33    18    19 1   
    34    18    20 2   
    35    19    21 2   
    36    19    40 1   
    37    20    22 1   
    38    21    22 1   
    39    21    23 1   
    40    22    41 1   
    41    23    24 1   
    42    23    25 1   
    43    23    42 1   
    44    24    26 1   
    45    24    43 1   
    46    24    44 1   
    47    25    27 1   
    48    25    45 1   
    49    26    27 1   
    50    26    46 1   
    51    26    47 1   
    52    27    48 1   
    53    27    49 1   
@<TRIPOS>SUBSTRUCTURE
     1 2PU         1 TEMP              0 ****  ****    0 ROOT
