@<TRIPOS>MOLECULE
2PX
   63    67     1     0     0
SMALL
bcc


@<TRIPOS>ATOM
      1 O01         -2.2720    -3.3530    -0.7340 o          1 2PX      -0.609100
      2 C02         -1.8540    -2.2160    -0.9120 c          1 2PX       0.671100
      3 C03         -2.8030    -1.0280    -0.9920 c3         1 2PX       0.090500
      4 C04         -3.1830    -0.6280     0.4530 c3         1 2PX      -0.039200
      5 C05         -4.0450     0.5890     0.5030 cc         1 2PX      -0.149400
      6 C06         -3.6200     1.8850     0.6090 cd         1 2PX      -0.105100
      7 N07         -4.6880     2.7370     0.5790 na         1 2PX      -0.171400
      8 C08         -5.8380     2.0170     0.4540 ca         1 2PX      -0.046200
      9 C09         -5.4750     0.6510     0.4020 ca         1 2PX      -0.100800
     10 C10         -6.4840    -0.3130     0.2840 ca         1 2PX      -0.085000
     11 C11         -7.8000     0.0980     0.2170 ca         1 2PX      -0.155000
     12 C12         -8.1380     1.4610     0.2660 ca         1 2PX      -0.108000
     13 C13         -7.1660     2.4360     0.3860 ca         1 2PX      -0.146000
     14 N14         -3.9110    -1.3740    -1.8570 n8         1 2PX      -0.877800
     15 N15         -0.5520    -1.9130    -0.9970 ns         1 2PX      -0.572900
     16 C16          0.5190    -2.8840    -0.8390 c6         1 2PX       0.119700
     17 C17          0.7460    -3.2450     0.6300 c6         1 2PX      -0.092900
     18 C18          1.3320    -2.0760     1.4050 c6         1 2PX       0.165300
     19 C19          1.8110    -2.3160    -1.4140 c6         1 2PX      -0.092900
     20 C20          2.3800    -1.1910    -0.5580 c6         1 2PX       0.165300
     21 N21          2.5780    -1.6220     0.8120 n3         1 2PX      -0.717600
     22 C22          3.1900    -0.5850     1.6300 c3         1 2PX       0.245000
     23 C23          4.5690    -0.2130     1.1920 cc         1 2PX      -0.151400
     24 C24          5.7220    -0.8910     1.4810 cd         1 2PX      -0.084100
     25 N25          6.7920    -0.2650     0.9110 na         1 2PX      -0.172400
     26 C26          6.3610     0.8420     0.2380 ca         1 2PX      -0.053200
     27 C27          4.9600     0.9080     0.3900 ca         1 2PX      -0.090800
     28 C28          4.2580     1.9540    -0.2230 ca         1 2PX      -0.086000
     29 C29          4.9390     2.9090    -0.9550 ca         1 2PX      -0.104300
     30 C30          4.2090     4.0570    -1.5970 c3         1 2PX      -0.040800
     31 C31          6.3410     2.8140    -1.0810 ca         1 2PX      -0.110000
     32 C32          7.0650     1.7940    -0.4970 ca         1 2PX      -0.140000
     33 H1          -2.2840    -0.1760    -1.4400 h1         1 2PX       0.058700
     34 H2          -3.6910    -1.4720     0.9290 hc         1 2PX       0.056700
     35 H3          -2.2670    -0.4540     1.0240 hc         1 2PX       0.056700
     36 H4          -2.6170     2.2680     0.7110 h4         1 2PX       0.160000
     37 H5          -4.6270     3.7390     0.6470 hn         1 2PX       0.300700
     38 H6          -6.2390    -1.3680     0.2480 ha         1 2PX       0.133000
     39 H7          -8.5880    -0.6390     0.1260 ha         1 2PX       0.131000
     40 H8          -9.1790     1.7520     0.2100 ha         1 2PX       0.130000
     41 H9          -7.4270     3.4860     0.4260 ha         1 2PX       0.131000
     42 H10         -4.4040    -2.1730    -1.4760 hn         1 2PX       0.356300
     43 H11         -4.5740    -0.6100    -1.8790 hn         1 2PX       0.356300
     44 H13         -0.3040    -0.9550    -1.1840 hn         1 2PX       0.311500
     45 H14          0.2400    -3.7840    -1.3920 h1         1 2PX       0.073700
     46 H15         -0.1870    -3.5680     1.0930 hc         1 2PX       0.059450
     47 H16          1.4370    -4.0910     0.6730 hc         1 2PX       0.059450
     48 H17          0.5880    -1.2620     1.4660 h1         1 2PX       0.030700
     49 H18          1.5300    -2.3870     2.4330 h1         1 2PX       0.030700
     50 H19          2.5440    -3.1240    -1.4660 hc         1 2PX       0.059450
     51 H20          1.6540    -1.9620    -2.4360 hc         1 2PX       0.059450
     52 H21          3.3380    -0.8800    -0.9790 h1         1 2PX       0.030700
     53 H22          1.7260    -0.2980    -0.6050 h1         1 2PX       0.030700
     54 H24          2.5610     0.3220     1.6610 h1         1 2PX       0.033200
     55 H25          3.2250    -0.9590     2.6570 h1         1 2PX       0.033200
     56 H26          5.8590    -1.7870     2.0660 h4         1 2PX       0.166000
     57 H27          7.7470    -0.5700     0.9920 hn         1 2PX       0.299700
     58 H28          3.1780     2.0130    -0.1290 ha         1 2PX       0.126000
     59 H29          4.2440     4.9520    -0.9720 hc         1 2PX       0.037700
     60 H30          4.6470     4.3220    -2.5600 hc         1 2PX       0.037700
     61 H31          3.1580     3.8190    -1.7620 hc         1 2PX       0.037700
     62 H32          6.8660     3.5650    -1.6590 ha         1 2PX       0.127000
     63 H33          8.1400     1.7360    -0.6140 ha         1 2PX       0.131000
@<TRIPOS>BOND
     1     1     2 2   
     2     2     3 1   
     3     2    15 1   
     4     3     4 1   
     5     3    14 1   
     6     3    33 1   
     7     4     5 1   
     8     4    34 1   
     9     4    35 1   
    10     5     6 2   
    11     5     9 1   
    12     6     7 1   
    13     6    36 1   
    14     7     8 1   
    15     7    37 1   
    16     8     9 ar  
    17     8    13 ar  
    18     9    10 ar  
    19    10    11 ar  
    20    10    38 1   
    21    11    12 ar  
    22    11    39 1   
    23    12    13 ar  
    24    12    40 1   
    25    13    41 1   
    26    14    42 1   
    27    14    43 1   
    28    15    16 1   
    29    15    44 1   
    30    16    17 1   
    31    16    19 1   
    32    16    45 1   
    33    17    18 1   
    34    17    46 1   
    35    17    47 1   
    36    18    21 1   
    37    18    48 1   
    38    18    49 1   
    39    19    20 1   
    40    19    50 1   
    41    19    51 1   
    42    20    21 1   
    43    20    52 1   
    44    20    53 1   
    45    21    22 1   
    46    22    23 1   
    47    22    54 1   
    48    22    55 1   
    49    23    24 2   
    50    23    27 1   
    51    24    25 1   
    52    24    56 1   
    53    25    26 1   
    54    25    57 1   
    55    26    27 ar  
    56    26    32 ar  
    57    27    28 ar  
    58    28    29 ar  
    59    28    58 1   
    60    29    30 1   
    61    29    31 ar  
    62    30    59 1   
    63    30    60 1   
    64    30    61 1   
    65    31    32 ar  
    66    31    62 1   
    67    32    63 1   
@<TRIPOS>SUBSTRUCTURE
     1 2PX         1 TEMP              0 ****  ****    0 ROOT
