@<TRIPOS>MOLECULE
2PX
   63    67     1     0     0
SMALL
No Charge or Current Charge


@<TRIPOS>ATOM
      1 O01         -2.2930    -3.3810    -0.4660 o          1 2PX      -0.609100
      2 C02         -1.8670    -2.2420    -0.6200 c          1 2PX       0.604100
      3 C03         -2.8060    -0.9850    -0.7270 c3         1 2PX       0.090500
      4 C04         -3.5210    -0.7210     0.6230 c3         1 2PX      -0.039200
      5 C05         -4.3300     0.5540     0.6420 cc         1 2PX      -0.149400
      6 C06         -3.8790     1.8260     0.9810 cd         1 2PX      -0.155100
      7 N07         -4.9370     2.7590     0.8490 na         1 2PX      -0.221700
      8 C08         -6.0350     2.0310     0.4310 ca         1 2PX      -0.046200
      9 C09         -5.7170     0.7080     0.2980 ca         1 2PX      -0.100800
     10 C10         -6.6690    -0.2440    -0.0980 ca         1 2PX      -0.067000
     11 C11         -7.9790     0.2050    -0.3720 ca         1 2PX      -0.137000
     12 C12         -8.3070     1.5750    -0.2410 ca         1 2PX      -0.090000
     13 C13         -7.3280     2.5050     0.1680 ca         1 2PX      -0.128000
     14 N14         -3.7970    -1.0120    -1.8540 n8         1 2PX      -0.988200
     15 N15         -0.5170    -1.9790    -0.7320 ns         1 2PX      -0.505900
     16 C16          0.5600    -2.9770    -0.6420 c6         1 2PX       0.119700
     17 C17          0.8820    -3.3220     0.8330 c6         1 2PX      -0.092900
     18 C18          1.5400    -2.1320     1.5710 c6         1 2PX       0.165300
     19 C19          1.8490    -2.4580    -1.3220 c6         1 2PX      -0.092900
     20 C20          2.4990    -1.2960    -0.5330 c6         1 2PX       0.165300
     21 N21          2.7770    -1.6800     0.8800 n3         1 2PX      -0.717600
     22 C22          3.4760    -0.6170     1.6380 c3         1 2PX       0.245000
     23 C23          4.8260    -0.2600     1.0640 cc         1 2PX      -0.151400
     24 C24          6.0090    -0.9860     1.1790 cd         1 2PX      -0.134100
     25 N25          7.0510    -0.3100     0.4970 na         1 2PX      -0.222700
     26 C26          6.4790     0.8300    -0.0350 ca         1 2PX      -0.053200
     27 C27          5.1510     0.8990     0.2790 ca         1 2PX      -0.090800
     28 C28          4.3410     1.9600    -0.1530 ca         1 2PX      -0.068000
     29 C29          4.9340     2.9780    -0.9330 ca         1 2PX      -0.104300
     30 C30          4.0960     4.1500    -1.4220 c3         1 2PX      -0.040800
     31 C31          6.3130     2.9070    -1.2530 ca         1 2PX      -0.092000
     32 C32          7.0990     1.8240    -0.8040 ca         1 2PX      -0.122000
     33 H1          -2.1520    -0.1210    -0.9070 h1         1 2PX       0.058700
     34 H2          -4.1640    -1.5750     0.8690 hc         1 2PX       0.056700
     35 H3          -2.7650    -0.6770     1.4160 hc         1 2PX       0.056700
     36 H4          -2.8850     2.1350     1.2970 h4         1 2PX       0.210000
     37 H5          -4.8980     3.7590     1.0250 hn         1 2PX       0.351000
     38 H6          -6.4120    -1.2960    -0.1900 ha         1 2PX       0.115000
     39 H7          -8.7400    -0.5070    -0.6830 ha         1 2PX       0.113000
     40 H8          -9.3200     1.9130    -0.4530 ha         1 2PX       0.112000
     41 H9          -7.5710     3.5590     0.2760 ha         1 2PX       0.113000
     42 H10         -4.3690    -1.8610    -1.7710 hn         1 2PX       0.411500
     43 H11         -4.4750    -0.2560    -1.6890 hn         1 2PX       0.411500
     44 H13         -0.2590    -1.0120    -0.8790 hn         1 2PX       0.311500
     45 H14          0.2270    -3.8880    -1.1610 h1         1 2PX       0.073700
     46 H15         -0.0310    -3.6280     1.3610 hc         1 2PX       0.059450
     47 H16          1.5600    -4.1850     0.8660 hc         1 2PX       0.059450
     48 H17          0.8190    -1.3050     1.6440 h1         1 2PX       0.030700
     49 H18          1.7740    -2.4450     2.5990 h1         1 2PX       0.030700
     50 H19          2.5720    -3.2810    -1.4050 hc         1 2PX       0.059450
     51 H20          1.6320    -2.1370    -2.3500 hc         1 2PX       0.059450
     52 H21          3.4300    -1.0140    -1.0470 h1         1 2PX       0.030700
     53 H22          1.8380    -0.4170    -0.5650 h1         1 2PX       0.030700
     54 H24          2.8530     0.2880     1.6820 h1         1 2PX       0.033200
     55 H25          3.6310    -0.9450     2.6750 h1         1 2PX       0.033200
     56 H26          6.1780    -1.9300     1.6910 h4         1 2PX       0.216000
     57 H27          8.0190    -0.6050     0.4120 hn         1 2PX       0.350000
     58 H28          3.2860     1.9950     0.1030 ha         1 2PX       0.108000
     59 H29          4.1270     4.9780    -0.7050 hc         1 2PX       0.037700
     60 H30          4.4600     4.5260    -2.3860 hc         1 2PX       0.037700
     61 H31          3.0460     3.8630    -1.5570 hc         1 2PX       0.037700
     62 H32          6.7740     3.6900    -1.8510 ha         1 2PX       0.109000
     63 H33          8.1560     1.7640    -1.0500 ha         1 2PX       0.113000
@<TRIPOS>BOND
     1     1     2 2   
     2     2     3 1   
     3     2    15 1   
     4     3     4 1   
     5     3    14 1   
     6     3    33 1   
     7     4     5 1   
     8     4    34 1   
     9     4    35 1   
    10     5     6 2   
    11     5     9 1   
    12     6     7 1   
    13     6    36 1   
    14     7     8 1   
    15     7    37 1   
    16     8     9 ar  
    17     8    13 ar  
    18     9    10 ar  
    19    10    11 ar  
    20    10    38 1   
    21    11    12 ar  
    22    11    39 1   
    23    12    13 ar  
    24    12    40 1   
    25    13    41 1   
    26    14    42 1   
    27    14    43 1   
    28    15    16 1   
    29    15    44 1   
    30    16    17 1   
    31    16    19 1   
    32    16    45 1   
    33    17    18 1   
    34    17    46 1   
    35    17    47 1   
    36    18    21 1   
    37    18    48 1   
    38    18    49 1   
    39    19    20 1   
    40    19    50 1   
    41    19    51 1   
    42    20    21 1   
    43    20    52 1   
    44    20    53 1   
    45    21    22 1   
    46    22    23 1   
    47    22    54 1   
    48    22    55 1   
    49    23    24 2   
    50    23    27 1   
    51    24    25 1   
    52    24    56 1   
    53    25    26 1   
    54    25    57 1   
    55    26    27 ar  
    56    26    32 ar  
    57    27    28 ar  
    58    28    29 ar  
    59    28    58 1   
    60    29    30 1   
    61    29    31 ar  
    62    30    59 1   
    63    30    60 1   
    64    30    61 1   
    65    31    32 ar  
    66    31    62 1   
    67    32    63 1   
@<TRIPOS>SUBSTRUCTURE
     1 2PX         1 TEMP              0 ****  ****    0 ROOT
