@<TRIPOS>MOLECULE
2PZ
   43    45     1     0     0
SMALL
bcc


@<TRIPOS>ATOM
      1 CAD          5.1240    -0.9090     1.0440 ca         1 2PZ      -0.153000
      2 CAC          4.6610    -2.1880     0.7980 ca         1 2PZ      -0.108000
      3 CAB          3.4660    -2.4070     0.0920 ca         1 2PZ      -0.168000
      4 CAA          2.7140    -1.3510    -0.3860 ca         1 2PZ      -0.065000
      5 CAF          3.1650    -0.0440    -0.1640 ca         1 2PZ      -0.085800
      6 CAE          4.3640     0.1550     0.5580 ca         1 2PZ      -0.051200
      7 NAG          4.5650     1.5010     0.6500 na         1 2PZ      -0.174400
      8 CAI          3.5430     2.1540     0.0190 cc         1 2PZ      -0.111100
      9 CAH          2.6600     1.2540    -0.5050 cd         1 2PZ      -0.144400
     10 CAJ          1.4420     1.5610    -1.3100 c3         1 2PZ       0.250000
     11 NAK          0.2780     0.8150    -0.8700 n3         1 2PZ      -0.726600
     12 CAP         -0.1230     1.1490     0.4810 c6         1 2PZ       0.171800
     13 CAO         -1.2440     0.2400     0.9580 c6         1 2PZ      -0.091400
     14 CAL         -0.8280     0.9550    -1.7960 c6         1 2PZ       0.171800
     15 CAM         -1.9790     0.0370    -1.4150 c6         1 2PZ      -0.091400
     16 CAN         -2.4370     0.3160     0.0140 c6         1 2PZ       0.112700
     17 NAQ         -3.4810    -0.5910     0.4450 ns         1 2PZ      -0.575900
     18 C           -4.7940    -0.3670     0.2740 c          1 2PZ       0.667100
     19 O           -5.2430     0.6380    -0.2570 o          1 2PZ      -0.594100
     20 CA          -5.6960    -1.4420     0.8590 c3         1 2PZ       0.069800
     21 N           -7.0340    -1.3510     0.3170 n8         1 2PZ      -0.866800
     22 H1           6.0400    -0.7410     1.5950 ha         1 2PZ       0.129000
     23 H2           5.2280    -3.0360     1.1590 ha         1 2PZ       0.126000
     24 H3           3.1290    -3.4230    -0.0730 ha         1 2PZ       0.127000
     25 H4           1.7840    -1.5220    -0.9110 ha         1 2PZ       0.147000
     26 H5           5.3400     1.9480     1.1090 hn         1 2PZ       0.298700
     27 H6           3.5200     3.2320    -0.0150 h4         1 2PZ       0.160000
     28 H7           1.2680     2.6510    -1.3010 h1         1 2PZ       0.034200
     29 H8           1.6190     1.2920    -2.3570 h1         1 2PZ       0.034200
     30 H10          0.7350     1.0430     1.1460 h1         1 2PZ       0.034950
     31 H11         -0.4500     2.2030     0.5560 h1         1 2PZ       0.034950
     32 H12         -0.8720    -0.7890     1.0040 hc         1 2PZ       0.052450
     33 H13         -1.5430     0.5260     1.9690 hc         1 2PZ       0.052450
     34 H14         -1.1920     1.9980    -1.8380 h1         1 2PZ       0.034950
     35 H15         -0.4800     0.7050    -2.8010 h1         1 2PZ       0.034950
     36 H16         -2.8080     0.1800    -2.1110 hc         1 2PZ       0.052450
     37 H17         -1.6550    -1.0040    -1.4980 hc         1 2PZ       0.052450
     38 H18         -2.8430     1.3300     0.0550 h1         1 2PZ       0.074700
     39 H19         -3.1920    -1.4800     0.8250 hn         1 2PZ       0.307500
     40 H20         -5.2830    -2.4260     0.6240 h1         1 2PZ       0.040200
     41 H21         -5.6360    -1.3440     1.9540 h1         1 2PZ       0.040200
     42 H22         -7.6080    -2.0660     0.7440 hn         1 2PZ       0.348300
     43 H23         -7.4480    -0.4670     0.5800 hn         1 2PZ       0.348300
@<TRIPOS>BOND
     1     1     2 ar  
     2     1     6 ar  
     3     1    22 1   
     4     2     3 ar  
     5     2    23 1   
     6     3     4 ar  
     7     3    24 1   
     8     4     5 ar  
     9     4    25 1   
    10     5     6 ar  
    11     5     9 1   
    12     6     7 1   
    13     7     8 1   
    14     7    26 1   
    15     8     9 2   
    16     8    27 1   
    17     9    10 1   
    18    10    11 1   
    19    10    28 1   
    20    10    29 1   
    21    11    12 1   
    22    11    14 1   
    23    12    13 1   
    24    12    30 1   
    25    12    31 1   
    26    13    16 1   
    27    13    32 1   
    28    13    33 1   
    29    14    15 1   
    30    14    34 1   
    31    14    35 1   
    32    15    16 1   
    33    15    36 1   
    34    15    37 1   
    35    16    17 1   
    36    16    38 1   
    37    17    18 1   
    38    17    39 1   
    39    18    19 2   
    40    18    20 1   
    41    20    21 1   
    42    20    40 1   
    43    20    41 1   
    44    21    42 1   
    45    21    43 1   
@<TRIPOS>SUBSTRUCTURE
     1 2PZ         1 TEMP              0 ****  ****    0 ROOT
