@<TRIPOS>MOLECULE
2PZ
   43    45     1     0     0
SMALL
No Charge or Current Charge


@<TRIPOS>ATOM
      1 CAD          5.2710    -0.8620     1.0360 ca         1 2PZ      -0.135000
      2 CAC          4.9810    -2.1810     0.6200 ca         1 2PZ      -0.090000
      3 CAB          3.8700    -2.4390    -0.2220 ca         1 2PZ      -0.150000
      4 CAA          3.0410    -1.3820    -0.6560 ca         1 2PZ      -0.047000
      5 CAF          3.3610    -0.0870    -0.2240 ca         1 2PZ      -0.085800
      6 CAE          4.4290     0.1640     0.5890 ca         1 2PZ      -0.051200
      7 NAG          4.4910     1.5210     0.8510 na         1 2PZ      -0.224700
      8 CAI          3.4350     2.1880     0.1920 cc         1 2PZ      -0.161100
      9 CAH          2.7320     1.1900    -0.4760 cd         1 2PZ      -0.144400
     10 CAJ          1.5080     1.4080    -1.3380 c3         1 2PZ       0.250000
     11 NAK          0.2980     0.7090    -0.8430 n3         1 2PZ      -0.726600
     12 CAP         -0.1040     1.1410     0.5250 c6         1 2PZ       0.171800
     13 CAO         -1.3020     0.3150     1.0480 c6         1 2PZ      -0.091400
     14 CAL         -0.8350     0.8070    -1.8010 c6         1 2PZ       0.171800
     15 CAM         -2.0490    -0.0260    -1.3290 c6         1 2PZ      -0.091400
     16 CAN         -2.5050     0.4130     0.0820 c6         1 2PZ       0.112700
     17 NAQ         -3.6140    -0.4240     0.5590 ns         1 2PZ      -0.508900
     18 C           -4.9440    -0.2570     0.2330 c          1 2PZ       0.600100
     19 O           -5.3230     0.6550    -0.4950 o          1 2PZ      -0.594100
     20 CA          -5.9150    -1.3090     0.8740 c3         1 2PZ       0.069800
     21 N           -7.2820    -1.4650     0.2610 n8         1 2PZ      -0.977200
     22 H1           6.1190    -0.6530     1.6830 ha         1 2PZ       0.111000
     23 H2           5.6140    -3.0020     0.9480 ha         1 2PZ       0.108000
     24 H3           3.6540    -3.4580    -0.5350 ha         1 2PZ       0.109000
     25 H4           2.1820    -1.5640    -1.2980 ha         1 2PZ       0.129000
     26 H5           5.1950     1.9670     1.4320 hn         1 2PZ       0.349000
     27 H6           3.2770     3.2620     0.2490 h4         1 2PZ       0.210000
     28 H7           1.3150     2.4870    -1.4100 h1         1 2PZ       0.034200
     29 H8           1.7490     1.0580    -2.3510 h1         1 2PZ       0.034200
     30 H10          0.7310     1.0200     1.2310 h1         1 2PZ       0.034950
     31 H11         -0.3740     2.2080     0.5240 h1         1 2PZ       0.034950
     32 H12         -0.9950    -0.7340     1.1670 hc         1 2PZ       0.052450
     33 H13         -1.5900     0.6760     2.0440 hc         1 2PZ       0.052450
     34 H14         -1.1440     1.8570    -1.9200 h1         1 2PZ       0.034950
     35 H15         -0.5270     0.4470    -2.7940 h1         1 2PZ       0.034950
     36 H16         -2.8730     0.0900    -2.0450 hc         1 2PZ       0.052450
     37 H17         -1.7820    -1.0920    -1.3260 hc         1 2PZ       0.052450
     38 H18         -2.8430     1.4600     0.0420 h1         1 2PZ       0.074700
     39 H19         -3.3960    -1.2030     1.1680 hn         1 2PZ       0.307500
     40 H20         -5.4140    -2.2860     0.8430 h1         1 2PZ       0.040200
     41 H21         -6.0340    -1.0350     1.9310 h1         1 2PZ       0.040200
     42 H22         -7.8560    -2.0840     0.8490 hn         1 2PZ       0.403500
     43 H23         -7.7750    -0.5630     0.3020 hn         1 2PZ       0.403500
@<TRIPOS>BOND
     1     1     2 ar  
     2     1     6 ar  
     3     1    22 1   
     4     2     3 ar  
     5     2    23 1   
     6     3     4 ar  
     7     3    24 1   
     8     4     5 ar  
     9     4    25 1   
    10     5     6 ar  
    11     5     9 1   
    12     6     7 1   
    13     7     8 1   
    14     7    26 1   
    15     8     9 2   
    16     8    27 1   
    17     9    10 1   
    18    10    11 1   
    19    10    28 1   
    20    10    29 1   
    21    11    12 1   
    22    11    14 1   
    23    12    13 1   
    24    12    30 1   
    25    12    31 1   
    26    13    16 1   
    27    13    32 1   
    28    13    33 1   
    29    14    15 1   
    30    14    34 1   
    31    14    35 1   
    32    15    16 1   
    33    15    36 1   
    34    15    37 1   
    35    16    17 1   
    36    16    38 1   
    37    17    18 1   
    38    17    39 1   
    39    18    19 2   
    40    18    20 1   
    41    20    21 1   
    42    20    40 1   
    43    20    41 1   
    44    21    42 1   
    45    21    43 1   
@<TRIPOS>SUBSTRUCTURE
     1 2PZ         1 TEMP              0 ****  ****    0 ROOT
