@<TRIPOS>MOLECULE
2Q0
   34    35     1     0     0
SMALL
bcc


@<TRIPOS>ATOM
      1 CAA         -3.6930     1.6920     1.4780 c3         1 2Q0      -0.088100
      2 CAR         -4.3720     0.6490     0.5990 c3         1 2Q0      -0.078700
      3 CAB         -5.8060     1.0510     0.2710 c3         1 2Q0      -0.088100
      4 CAK         -3.6290     0.4160    -0.7170 c3         1 2Q0       0.098000
      5 NAS         -2.2380     0.0130    -0.5440 n          1 2Q0      -0.430400
      6 CAO         -1.1940     0.9280    -0.6840 c          1 2Q0       0.713700
      7 OAC         -1.3630     2.0910    -0.9640 o          1 2Q0      -0.561500
      8 CAP         -1.8900    -1.2660    -0.2620 cs         1 2Q0       0.396000
      9 SAE         -2.8890    -2.5520    -0.0900 s          1 2Q0      -0.430400
     10 SAL         -0.1630    -1.4280    -0.1080 ss         1 2Q0      -0.049200
     11 CAQ          0.0980     0.2670    -0.4440 cc         1 2Q0      -0.173600
     12 CAF          1.2480     0.9660    -0.4700 cf         1 2Q0       0.048800
     13 CAN          2.6140     0.5510    -0.2600 ca         1 2Q0      -0.136800
     14 CAI          3.0440    -0.7780    -0.1320 ca         1 2Q0      -0.047500
     15 CAG          4.3710    -1.0850     0.0780 ca         1 2Q0      -0.206000
     16 CAM          5.3220    -0.0650     0.1710 ca         1 2Q0       0.173100
     17 OAD          6.5940    -0.4190     0.3830 oh         1 2Q0      -0.483100
     18 CAH          4.9190     1.2640     0.0360 ca         1 2Q0      -0.206000
     19 CAJ          3.5890     1.5560    -0.1810 ca         1 2Q0      -0.047500
     20 H1          -3.6060     2.6500     0.9630 hc         1 2Q0       0.037367
     21 H2          -4.2730     1.8540     2.3880 hc         1 2Q0       0.037367
     22 H3          -2.6940     1.3830     1.7880 hc         1 2Q0       0.037367
     23 H4          -4.3990    -0.3000     1.1430 hc         1 2Q0       0.068700
     24 H5          -5.8320     1.9910    -0.2850 hc         1 2Q0       0.037367
     25 H6          -6.3090     0.2920    -0.3310 hc         1 2Q0       0.037367
     26 H7          -6.3860     1.1890     1.1830 hc         1 2Q0       0.037367
     27 H8          -4.1230    -0.3630    -1.2980 h1         1 2Q0       0.075200
     28 H9          -3.6280     1.3250    -1.3180 h1         1 2Q0       0.075200
     29 H10          1.1210     2.0260    -0.6690 ha         1 2Q0       0.147000
     30 H12          2.3540    -1.6060    -0.2160 ha         1 2Q0       0.139500
     31 H13          4.6820    -2.1180     0.1700 ha         1 2Q0       0.147000
     32 H14          7.1640     0.3570     0.4300 ho         1 2Q0       0.433000
     33 H15          5.6450     2.0660     0.0970 ha         1 2Q0       0.147000
     34 H16          3.2910     2.5920    -0.2870 ha         1 2Q0       0.139500
@<TRIPOS>BOND
     1     1     2 1   
     2     1    20 1   
     3     1    21 1   
     4     1    22 1   
     5     2     3 1   
     6     2     4 1   
     7     2    23 1   
     8     3    24 1   
     9     3    25 1   
    10     3    26 1   
    11     4     5 1   
    12     4    27 1   
    13     4    28 1   
    14     5     6 1   
    15     5     8 1   
    16     6     7 2   
    17     6    11 1   
    18     8     9 2   
    19     8    10 1   
    20    10    11 1   
    21    11    12 2   
    22    12    13 1   
    23    12    29 1   
    24    13    14 ar  
    25    13    19 ar  
    26    14    15 ar  
    27    14    30 1   
    28    15    16 ar  
    29    15    31 1   
    30    16    17 1   
    31    16    18 ar  
    32    17    32 1   
    33    18    19 ar  
    34    18    33 1   
    35    19    34 1   
@<TRIPOS>SUBSTRUCTURE
     1 2Q0         1 TEMP              0 ****  ****    0 ROOT
