@<TRIPOS>MOLECULE
2Q0
   34    35     1     0     0
SMALL
No Charge or Current Charge


@<TRIPOS>ATOM
      1 CAA         -3.8340     1.7720     1.4820 c3         1 2Q0      -0.088100
      2 CAR         -4.4630     0.6950     0.5660 c3         1 2Q0      -0.078700
      3 CAB         -5.9410     1.0230     0.2600 c3         1 2Q0      -0.088100
      4 CAK         -3.6620     0.4700    -0.7440 c3         1 2Q0       0.098000
      5 NAS         -2.2680     0.0150    -0.5290 n          1 2Q0      -0.296400
      6 CAO         -1.2050     0.9320    -0.5570 c          1 2Q0       0.571200
      7 OAC         -1.3410     2.1370    -0.7170 o          1 2Q0      -0.486000
      8 CAP         -1.9220    -1.3110    -0.3840 cs         1 2Q0       0.329000
      9 SAE         -2.9670    -2.6200    -0.3530 s          1 2Q0      -0.430400
     10 SAL         -0.1650    -1.4860    -0.2050 ss         1 2Q0      -0.049200
     11 CAQ          0.0780     0.2360    -0.3700 cc         1 2Q0      -0.173600
     12 CAF          1.2840     0.8980    -0.3430 cf         1 2Q0      -0.001200
     13 CAN          2.7110     0.5140    -0.1810 ca         1 2Q0      -0.136800
     14 CAI          3.1430    -0.8190     0.0060 ca         1 2Q0      -0.029500
     15 CAG          4.5100    -1.1140     0.1520 ca         1 2Q0      -0.188000
     16 CAM          5.4630    -0.0900     0.1150 ca         1 2Q0       0.173100
     17 OAD          6.7830    -0.3910     0.2580 oh         1 2Q0      -0.522100
     18 CAH          5.0520     1.2370    -0.0690 ca         1 2Q0      -0.188000
     19 CAJ          3.6860     1.5360    -0.2160 ca         1 2Q0      -0.029500
     20 H1          -3.7690     2.7360     0.9630 hc         1 2Q0       0.037367
     21 H2          -4.4370     1.9100     2.3870 hc         1 2Q0       0.037367
     22 H3          -2.8250     1.4800     1.7970 hc         1 2Q0       0.037367
     23 H4          -4.4530    -0.2510     1.1220 hc         1 2Q0       0.068700
     24 H5          -6.0260     1.9640    -0.2970 hc         1 2Q0       0.037367
     25 H6          -6.3990     0.2270    -0.3400 hc         1 2Q0       0.037367
     26 H7          -6.5180     1.1200     1.1870 hc         1 2Q0       0.037367
     27 H8          -4.1820    -0.2770    -1.3570 h1         1 2Q0       0.075200
     28 H9          -3.6590     1.4000    -1.3270 h1         1 2Q0       0.075200
     29 H10          1.1620     1.9760    -0.4720 ha         1 2Q0       0.197000
     30 H12          2.4410    -1.6430     0.0410 ha         1 2Q0       0.121500
     31 H13          4.8290    -2.1430     0.2950 ha         1 2Q0       0.129000
     32 H14          7.2980     0.4430     0.2070 ho         1 2Q0       0.472000
     33 H15          5.7820     2.0420    -0.1000 ha         1 2Q0       0.129000
     34 H16          3.3890     2.5730    -0.3580 ha         1 2Q0       0.121500
@<TRIPOS>BOND
     1     1     2 1   
     2     1    20 1   
     3     1    21 1   
     4     1    22 1   
     5     2     3 1   
     6     2     4 1   
     7     2    23 1   
     8     3    24 1   
     9     3    25 1   
    10     3    26 1   
    11     4     5 1   
    12     4    27 1   
    13     4    28 1   
    14     5     6 1   
    15     5     8 1   
    16     6     7 2   
    17     6    11 1   
    18     8     9 2   
    19     8    10 1   
    20    10    11 1   
    21    11    12 2   
    22    12    13 1   
    23    12    29 1   
    24    13    14 ar  
    25    13    19 ar  
    26    14    15 ar  
    27    14    30 1   
    28    15    16 ar  
    29    15    31 1   
    30    16    17 1   
    31    16    18 ar  
    32    17    32 1   
    33    18    19 ar  
    34    18    33 1   
    35    19    34 1   
@<TRIPOS>SUBSTRUCTURE
     1 2Q0         1 TEMP              0 ****  ****    0 ROOT
