@<TRIPOS>MOLECULE
2Q2
   24    23     1     0     0
SMALL
No Charge or Current Charge


@<TRIPOS>ATOM
      1 OAA         -4.0150    -0.1130    -0.3110 o          1 2Q2      -0.714500
      2 CAI         -2.9870     0.2090     0.2720 c          1 2Q2       0.701000
      3 OAC         -2.9170     1.1620     1.0360 o          1 2Q2      -0.714500
      4 CAK         -1.7150    -0.6840     0.0320 c3         1 2Q2      -0.017700
      5 OAE         -1.9010    -1.6560    -1.0570 oh         1 2Q2      -0.780000
      6 CAM         -0.4330     0.1590    -0.2420 c3         1 2Q2       0.151300
      7 OAG         -0.4030     0.3050    -1.6640 oh         1 2Q2      -0.710000
      8 CAL          0.8860    -0.5160     0.2640 c3         1 2Q2       0.102300
      9 OAF          0.8510    -0.6810     1.6960 oh         1 2Q2      -0.728000
     10 CAJ          2.1640     0.3100    -0.0780 c3         1 2Q2       0.139300
     11 OAD          2.2450     1.4640     0.7860 oh         1 2Q2      -0.699000
     12 CAH          3.4800    -0.4980     0.0810 c3         1 2Q2       0.122600
     13 OAB          4.6120     0.3690    -0.1240 oh         1 2Q2      -0.716000
     14 H2          -1.5770    -1.2240     0.9780 h1         1 2Q2       0.043700
     15 H3          -2.8850    -1.7720    -1.1350 ho         1 2Q2       0.539000
     16 H4          -0.5180     1.1400     0.2470 h1         1 2Q2       0.089700
     17 H5          -0.9550    -0.4830    -1.9210 ho         1 2Q2       0.499000
     18 H6           0.9660    -1.4960    -0.2280 h1         1 2Q2       0.078700
     19 H7           1.2830     0.1440     2.0290 ho         1 2Q2       0.498000
     20 H8           2.1060     0.6240    -1.1310 h1         1 2Q2       0.096700
     21 H9           3.1980     1.7230     0.7370 ho         1 2Q2       0.485000
     22 H10          3.5220    -0.9480     1.0820 h1         1 2Q2       0.023200
     23 H11          3.4870    -1.3160    -0.6520 h1         1 2Q2       0.023200
     24 H12          5.4200    -0.1940    -0.0800 ho         1 2Q2       0.488000
@<TRIPOS>BOND
     1     1     2 1   
     2     2     3 1   
     3     2     4 1   
     4     4     5 1   
     5     4     6 1   
     6     4    14 1   
     7     5    15 1   
     8     6     7 1   
     9     6     8 1   
    10     6    16 1   
    11     7    17 1   
    12     8     9 1   
    13     8    10 1   
    14     8    18 1   
    15     9    19 1   
    16    10    11 1   
    17    10    12 1   
    18    10    20 1   
    19    11    21 1   
    20    12    13 1   
    21    12    22 1   
    22    12    23 1   
    23    13    24 1   
@<TRIPOS>SUBSTRUCTURE
     1 2Q2         1 TEMP              0 ****  ****    0 ROOT
