@<TRIPOS>MOLECULE
2Q2
   24    23     1     0     0
SMALL
bcc


@<TRIPOS>ATOM
      1 OAA         -3.7250    -0.3100    -0.7110 o          1 2Q2      -0.819800
      2 CAI         -2.9100     0.1780     0.1050 c          1 2Q2       0.911600
      3 OAC         -3.0390     1.2120     0.7760 o          1 2Q2      -0.819800
      4 CAK         -1.6100    -0.6370     0.2810 c3         1 2Q2      -0.040900
      5 OAE         -1.6580    -1.7690    -0.5540 oh         1 2Q2      -0.657800
      6 CAM         -0.3920     0.2170    -0.0660 c3         1 2Q2       0.128100
      7 OAG         -0.4610     0.6410    -1.4090 oh         1 2Q2      -0.587800
      8 CAL          0.9320    -0.5140     0.2140 c3         1 2Q2       0.079100
      9 OAF          1.0150    -0.8940     1.5740 oh         1 2Q2      -0.605800
     10 CAJ          2.1550     0.3010    -0.2240 c3         1 2Q2       0.116100
     11 OAD          2.2100     1.5630     0.4090 oh         1 2Q2      -0.576800
     12 CAH          3.4340    -0.4950    -0.0240 c3         1 2Q2       0.099400
     13 OAB          4.5070     0.2080    -0.6080 oh         1 2Q2      -0.593800
     14 H2          -1.5450    -0.9390     1.3350 h1         1 2Q2       0.043700
     15 H3          -2.5280    -1.6610    -0.9880 ho         1 2Q2       0.440000
     16 H4          -0.4230     1.1210     0.5500 h1         1 2Q2       0.089700
     17 H5          -0.6270    -0.1440    -1.9460 ho         1 2Q2       0.400000
     18 H6           0.9430    -1.4480    -0.3600 h1         1 2Q2       0.078700
     19 H7           0.8230    -0.1250     2.1220 ho         1 2Q2       0.399000
     20 H8           2.0490     0.5020    -1.2930 h1         1 2Q2       0.096700
     21 H9           2.5480     1.4530     1.3040 ho         1 2Q2       0.386000
     22 H10          3.6010    -0.6630     1.0480 h1         1 2Q2       0.023200
     23 H11          3.3030    -1.4850    -0.4820 h1         1 2Q2       0.023200
     24 H12          5.3130    -0.2870    -0.4360 ho         1 2Q2       0.389000
@<TRIPOS>BOND
     1     1     2 1   
     2     2     3 1   
     3     2     4 1   
     4     4     5 1   
     5     4     6 1   
     6     4    14 1   
     7     5    15 1   
     8     6     7 1   
     9     6     8 1   
    10     6    16 1   
    11     7    17 1   
    12     8     9 1   
    13     8    10 1   
    14     8    18 1   
    15     9    19 1   
    16    10    11 1   
    17    10    12 1   
    18    10    20 1   
    19    11    21 1   
    20    12    13 1   
    21    12    22 1   
    22    12    23 1   
    23    13    24 1   
@<TRIPOS>SUBSTRUCTURE
     1 2Q2         1 TEMP              0 ****  ****    0 ROOT
