@<TRIPOS>MOLECULE
2Q4
   65    66     1     0     0
SMALL
abcg2


@<TRIPOS>ATOM
      1 CL           6.4040     3.7510     0.0290 cl         1 2Q4      -0.203000
      2 C6           5.2530     2.4550     0.0830 ca         1 2Q4       0.124000
      3 C3           5.5130     1.2780    -0.6000 ca         1 2Q4      -0.107500
      4 C4           4.0860     2.6040     0.8120 ca         1 2Q4      -0.107500
      5 C2           3.1740     1.5600     0.8510 ca         1 2Q4      -0.091000
      6 C5           3.4010     0.3630     0.1740 ca         1 2Q4      -0.110300
      7 C1           4.5900     0.2450    -0.5470 ca         1 2Q4      -0.091000
      8 C12          2.4060    -0.7930     0.1940 c6         1 2Q4       0.243300
      9 C9           1.6980    -0.9040     1.5550 c6         1 2Q4      -0.125400
     10 O28          3.0840    -2.0070    -0.0600 oh         1 2Q4      -0.661000
     11 C13          1.3430    -0.6640    -0.9440 c6         1 2Q4      -0.045000
     12 C14          1.9770    -0.7650    -2.3320 c3         1 2Q4      -0.088600
     13 C15          0.5810     0.6580    -0.8560 c3         1 2Q4      -0.088600
     14 C11          0.3460    -1.8300    -0.8110 c6         1 2Q4       0.105000
     15 N24         -0.2870    -1.8580     0.4930 n          1 2Q4      -0.400800
     16 C10          0.6710    -2.0260     1.5740 c6         1 2Q4       0.095000
     17 C7          -1.5870    -1.6230     0.7560 c          1 2Q4       0.597100
     18 O26         -2.0270    -1.5520     1.8980 o          1 2Q4      -0.614100
     19 C21         -2.5490    -1.5200    -0.4300 c3         1 2Q4       0.035700
     20 C22         -2.8480    -2.9260    -1.0050 c3         1 2Q4      -0.067700
     21 C17         -3.5490    -3.8310     0.0030 c3         1 2Q4      -0.088600
     22 C16         -3.6590    -2.8190    -2.2900 c3         1 2Q4      -0.088600
     23 N25         -3.7430    -0.8430     0.0010 ns         1 2Q4      -0.483900
     24 C8          -4.3110     0.1750    -0.6710 c          1 2Q4       0.619100
     25 O27         -3.9040     0.5710    -1.7550 o          1 2Q4      -0.623100
     26 C20         -5.5220     0.7780     0.0090 c3         1 2Q4      -0.147400
     27 C23         -5.2520     2.1530     0.6370 c3         1 2Q4       0.192000
     28 O29         -4.0930     1.9850     1.4390 oh         1 2Q4      -0.660000
     29 C19         -5.0220     3.2320    -0.4190 c3         1 2Q4      -0.123600
     30 C18         -6.4520     2.5350     1.5040 c3         1 2Q4      -0.123600
     31 H1           6.4270     1.1610    -1.1670 ha         1 2Q4       0.130000
     32 H2           3.8850     3.5210     1.3500 ha         1 2Q4       0.130000
     33 H3           2.2730     1.7060     1.4310 ha         1 2Q4       0.124000
     34 H4           4.8140    -0.6680    -1.0800 ha         1 2Q4       0.124000
     35 H5           2.4460    -1.0860     2.3340 hc         1 2Q4       0.056700
     36 H6           1.2040     0.0280     1.8260 hc         1 2Q4       0.056700
     37 H7           3.6850    -2.1840     0.6730 ho         1 2Q4       0.447000
     38 H8           2.4590    -1.7270    -2.5010 hc         1 2Q4       0.042867
     39 H9           1.2060    -0.6440    -3.0950 hc         1 2Q4       0.042867
     40 H10          2.7170     0.0190    -2.4940 hc         1 2Q4       0.042867
     41 H11          1.2380     1.5090    -1.0370 hc         1 2Q4       0.042867
     42 H12         -0.2050     0.6870    -1.6140 hc         1 2Q4       0.042867
     43 H13          0.1020     0.8170     0.1100 hc         1 2Q4       0.042867
     44 H14         -0.3910    -1.7350    -1.6040 h1         1 2Q4       0.060200
     45 H15          0.8510    -2.7850    -0.9740 h1         1 2Q4       0.060200
     46 H16          1.1600    -2.9970     1.4570 h1         1 2Q4       0.065200
     47 H17          0.1480    -2.0390     2.5260 h1         1 2Q4       0.065200
     48 H18         -2.1160    -0.9110    -1.2250 h1         1 2Q4       0.090700
     49 H19         -1.8850    -3.3830    -1.2570 hc         1 2Q4       0.048700
     50 H20         -4.5180    -3.4180     0.2920 hc         1 2Q4       0.038367
     51 H21         -3.7330    -4.8100    -0.4410 hc         1 2Q4       0.038367
     52 H22         -2.9630    -3.9880     0.9080 hc         1 2Q4       0.038367
     53 H23         -4.6560    -2.4180    -2.1000 hc         1 2Q4       0.038367
     54 H24         -3.1720    -2.1750    -3.0230 hc         1 2Q4       0.038367
     55 H25         -3.7840    -3.8050    -2.7410 hc         1 2Q4       0.038367
     56 H26         -4.0600    -1.0350     0.9380 hn         1 2Q4       0.336500
     57 H27         -6.3160     0.8790    -0.7330 hc         1 2Q4       0.065700
     58 H28         -5.8950     0.1040     0.7840 hc         1 2Q4       0.065700
     59 H29         -3.8920     2.8300     1.8550 ho         1 2Q4       0.444000
     60 H30         -5.8860     3.3210    -1.0790 hc         1 2Q4       0.045033
     61 H31         -4.8760     4.2040     0.0590 hc         1 2Q4       0.045033
     62 H32         -4.1490     3.0210    -1.0340 hc         1 2Q4       0.045033
     63 H33         -6.6060     1.8060     2.3020 hc         1 2Q4       0.045033
     64 H34         -6.3030     3.5150     1.9640 hc         1 2Q4       0.045033
     65 H35         -7.3660     2.5880     0.9120 hc         1 2Q4       0.045033
@<TRIPOS>BOND
     1     1     2 1   
     2     2     3 ar  
     3     2     4 ar  
     4     3     7 ar  
     5     3    31 1   
     6     4     5 ar  
     7     4    32 1   
     8     5     6 ar  
     9     5    33 1   
    10     6     7 ar  
    11     6     8 1   
    12     7    34 1   
    13     8     9 1   
    14     8    10 1   
    15     8    11 1   
    16     9    16 1   
    17     9    35 1   
    18     9    36 1   
    19    10    37 1   
    20    11    12 1   
    21    11    13 1   
    22    11    14 1   
    23    12    38 1   
    24    12    39 1   
    25    12    40 1   
    26    13    41 1   
    27    13    42 1   
    28    13    43 1   
    29    14    15 1   
    30    14    44 1   
    31    14    45 1   
    32    15    16 1   
    33    15    17 1   
    34    16    46 1   
    35    16    47 1   
    36    17    18 2   
    37    17    19 1   
    38    19    20 1   
    39    19    23 1   
    40    19    48 1   
    41    20    21 1   
    42    20    22 1   
    43    20    49 1   
    44    21    50 1   
    45    21    51 1   
    46    21    52 1   
    47    22    53 1   
    48    22    54 1   
    49    22    55 1   
    50    23    24 1   
    51    23    56 1   
    52    24    25 2   
    53    24    26 1   
    54    26    27 1   
    55    26    57 1   
    56    26    58 1   
    57    27    28 1   
    58    27    29 1   
    59    27    30 1   
    60    28    59 1   
    61    29    60 1   
    62    29    61 1   
    63    29    62 1   
    64    30    63 1   
    65    30    64 1   
    66    30    65 1   
@<TRIPOS>SUBSTRUCTURE
     1 2Q4         1 TEMP              0 ****  ****    0 ROOT
