@<TRIPOS>MOLECULE
2Q4
   65    66     1     0     0
SMALL
No Charge or Current Charge


@<TRIPOS>ATOM
      1 Cl           6.9410     3.4970    -0.0990 cl         1 2Q4      -0.203000
      2 C6           5.6960     2.2590    -0.0020 ca         1 2Q4       0.124000
      3 C3           5.7930     1.1030    -0.7880 ca         1 2Q4      -0.107500
      4 C4           4.6020     2.4290     0.8550 ca         1 2Q4      -0.107500
      5 C2           3.6030     1.4420     0.9340 ca         1 2Q4      -0.091000
      6 C5           3.6840     0.2590     0.1570 ca         1 2Q4      -0.110300
      7 C1           4.7970     0.1140    -0.7120 ca         1 2Q4      -0.091000
      8 C12          2.5860    -0.8520     0.2220 c6         1 2Q4       0.243300
      9 C9           1.9200    -0.9550     1.6360 c6         1 2Q4      -0.125400
     10 O28          3.2410    -2.1120     0.0080 oh         1 2Q4      -0.661000
     11 C13          1.4640    -0.6530    -0.8930 c6         1 2Q4      -0.045000
     12 C14          2.0640    -0.6750    -2.3390 c3         1 2Q4      -0.088600
     13 C15          0.7380     0.7300    -0.7630 c3         1 2Q4      -0.088600
     14 C11          0.4030    -1.8020    -0.7990 c6         1 2Q4       0.105000
     15 N24         -0.2450    -1.8850     0.5400 n          1 2Q4      -0.400800
     16 C10          0.7780    -2.0430     1.6400 c6         1 2Q4       0.095000
     17 C7          -1.5740    -1.4670     0.8060 c          1 2Q4       0.597100
     18 O26         -1.9180    -1.2190     1.9580 o          1 2Q4      -0.614100
     19 C21         -2.6100    -1.4010    -0.3670 c3         1 2Q4       0.035700
     20 C22         -2.8990    -2.8110    -0.9810 c3         1 2Q4      -0.067700
     21 C17         -3.6290    -3.7580     0.0030 c3         1 2Q4      -0.088600
     22 C16         -3.6480    -2.7280    -2.3320 c3         1 2Q4      -0.088600
     23 N25         -3.8520    -0.7260     0.0830 ns         1 2Q4      -0.483900
     24 C8          -4.5930     0.1650    -0.6600 c          1 2Q4       0.619100
     25 O27         -4.2840     0.4750    -1.8030 o          1 2Q4      -0.623100
     26 C20         -5.8630     0.6800     0.0230 c3         1 2Q4      -0.147400
     27 C23         -5.7130     2.0970     0.6320 c3         1 2Q4       0.192000
     28 O29         -4.6770     2.0510     1.6100 oh         1 2Q4      -0.660000
     29 C19         -5.3300     3.1680    -0.4160 c3         1 2Q4      -0.123600
     30 C18         -7.0150     2.5040     1.3590 c3         1 2Q4      -0.123600
     31 H1           6.6370     0.9750    -1.4600 ha         1 2Q4       0.130000
     32 H2           4.5240     3.3300     1.4580 ha         1 2Q4       0.130000
     33 H3           2.7670     1.6280     1.6000 ha         1 2Q4       0.124000
     34 H4           4.8960    -0.7620    -1.3500 ha         1 2Q4       0.124000
     35 H5           2.6700    -1.1950     2.4010 hc         1 2Q4       0.056700
     36 H6           1.4610    -0.0080     1.9380 hc         1 2Q4       0.056700
     37 H7           4.1460    -2.0170     0.3730 ho         1 2Q4       0.447000
     38 H8           2.6170    -1.6000    -2.5390 hc         1 2Q4       0.042867
     39 H9           1.2760    -0.6040    -3.0990 hc         1 2Q4       0.042867
     40 H10          2.7470     0.1650    -2.5140 hc         1 2Q4       0.042867
     41 H11          1.4330     1.5680    -0.8900 hc         1 2Q4       0.042867
     42 H12         -0.0410     0.8430    -1.5280 hc         1 2Q4       0.042867
     43 H13          0.2460     0.8570     0.2080 hc         1 2Q4       0.042867
     44 H14         -0.3370    -1.6710    -1.5970 h1         1 2Q4       0.060200
     45 H15          0.8940    -2.7650    -1.0010 h1         1 2Q4       0.060200
     46 H16          1.2360    -3.0370     1.5350 h1         1 2Q4       0.065200
     47 H17          0.2880    -2.0400     2.6240 h1         1 2Q4       0.065200
     48 H18         -2.1540    -0.7690    -1.1370 h1         1 2Q4       0.090700
     49 H19         -1.9350    -3.2820    -1.2030 hc         1 2Q4       0.048700
     50 H20         -4.6310    -3.3840     0.2460 hc         1 2Q4       0.038367
     51 H21         -3.7390    -4.7570    -0.4370 hc         1 2Q4       0.038367
     52 H22         -3.0650    -3.8660     0.9370 hc         1 2Q4       0.038367
     53 H23         -4.6660    -2.3440    -2.1980 hc         1 2Q4       0.038367
     54 H24         -3.1180    -2.0680    -3.0300 hc         1 2Q4       0.038367
     55 H25         -3.7190    -3.7190    -2.7940 hc         1 2Q4       0.038367
     56 H26         -4.1480    -0.8670     1.0420 hn         1 2Q4       0.336500
     57 H27         -6.6700     0.7050    -0.7190 hc         1 2Q4       0.065700
     58 H28         -6.1330    -0.0030     0.8370 hc         1 2Q4       0.065700
     59 H29         -4.6330     2.9400     2.0230 ho         1 2Q4       0.444000
     60 H30         -6.0570     3.1830    -1.2370 hc         1 2Q4       0.045033
     61 H31         -5.3100     4.1680     0.0340 hc         1 2Q4       0.045033
     62 H32         -4.3380     2.9780    -0.8410 hc         1 2Q4       0.045033
     63 H33         -7.2720     1.7800     2.1420 hc         1 2Q4       0.045033
     64 H34         -6.9150     3.4900     1.8290 hc         1 2Q4       0.045033
     65 H35         -7.8530     2.5510     0.6530 hc         1 2Q4       0.045033
@<TRIPOS>BOND
     1     1     2 1   
     2     2     3 ar  
     3     2     4 ar  
     4     3     7 ar  
     5     3    31 1   
     6     4     5 ar  
     7     4    32 1   
     8     5     6 ar  
     9     5    33 1   
    10     6     7 ar  
    11     6     8 1   
    12     7    34 1   
    13     8     9 1   
    14     8    10 1   
    15     8    11 1   
    16     9    16 1   
    17     9    35 1   
    18     9    36 1   
    19    10    37 1   
    20    11    12 1   
    21    11    13 1   
    22    11    14 1   
    23    12    38 1   
    24    12    39 1   
    25    12    40 1   
    26    13    41 1   
    27    13    42 1   
    28    13    43 1   
    29    14    15 1   
    30    14    44 1   
    31    14    45 1   
    32    15    16 1   
    33    15    17 1   
    34    16    46 1   
    35    16    47 1   
    36    17    18 2   
    37    17    19 1   
    38    19    20 1   
    39    19    23 1   
    40    19    48 1   
    41    20    21 1   
    42    20    22 1   
    43    20    49 1   
    44    21    50 1   
    45    21    51 1   
    46    21    52 1   
    47    22    53 1   
    48    22    54 1   
    49    22    55 1   
    50    23    24 1   
    51    23    56 1   
    52    24    25 2   
    53    24    26 1   
    54    26    27 1   
    55    26    57 1   
    56    26    58 1   
    57    27    28 1   
    58    27    29 1   
    59    27    30 1   
    60    28    59 1   
    61    29    60 1   
    62    29    61 1   
    63    29    62 1   
    64    30    63 1   
    65    30    64 1   
    66    30    65 1   
@<TRIPOS>SUBSTRUCTURE
     1 2Q4         1 TEMP              0 ****  ****    0 ROOT
