@<TRIPOS>MOLECULE
2Q5
   43    42     1     0     0
SMALL
No Charge or Current Charge


@<TRIPOS>ATOM
      1 OH           2.9500     2.5650     0.5450 oh         1 2Q5      -0.703000
      2 C2           3.9700     1.6640     0.0800 c3         1 2Q5       0.176300
      3 C1           4.0190     1.7120    -1.4620 c3         1 2Q5      -0.125100
      4 C3           3.7560     0.2260     0.6450 c3         1 2Q5       0.168600
      5 O2           2.5340    -0.3400     0.1140 os         1 2Q5      -0.432000
      6 C5           2.2690    -1.7220     0.4510 c3         1 2Q5       0.179300
      7 C6           1.9970    -1.8520     1.9700 c3         1 2Q5      -0.117100
      8 C4           1.0890    -2.2230    -0.4310 c3         1 2Q5       0.167600
      9 O3          -0.1400    -1.5770    -0.0270 os         1 2Q5      -0.428000
     10 C7          -1.3480    -2.0320    -0.6800 c3         1 2Q5       0.178300
     11 C9          -1.3130    -1.6490    -2.1800 c3         1 2Q5      -0.117100
     12 C8          -2.5660    -1.4330     0.0810 c3         1 2Q5       0.165600
     13 O4          -2.6240    -0.0030    -0.1270 os         1 2Q5      -0.425000
     14 C11         -3.6290     0.7160     0.6270 c3         1 2Q5       0.173300
     15 C12         -5.0420     0.2910     0.1540 c3         1 2Q5      -0.115100
     16 C10         -3.3610     2.2450     0.4670 c3         1 2Q5       0.167600
     17 O5          -3.5270     2.7000    -0.8920 oh         1 2Q5      -0.703000
     18 H1           3.1480     3.4470     0.1570 ho         1 2Q5       0.497000
     19 H2           4.9450     2.0100     0.4490 h1         1 2Q5       0.021700
     20 H3           3.0570     1.4150    -1.8990 hc         1 2Q5       0.043033
     21 H4           4.2590     2.7230    -1.8130 hc         1 2Q5       0.043033
     22 H5           4.7910     1.0320    -1.8410 hc         1 2Q5       0.043033
     23 H6           4.6160    -0.3950     0.3620 h1         1 2Q5       0.024700
     24 H7           3.7240     0.2790     1.7410 h1         1 2Q5       0.024700
     25 H8           3.1440    -2.3380     0.2020 h1         1 2Q5       0.021700
     26 H9           1.6240    -2.8560     2.2050 hc         1 2Q5       0.043367
     27 H10          2.9130    -1.6970     2.5520 hc         1 2Q5       0.043367
     28 H11          1.2460    -1.1230     2.2990 hc         1 2Q5       0.043367
     29 H12          1.3220    -2.0130    -1.4830 h1         1 2Q5       0.023200
     30 H13          1.0010    -3.3110    -0.3150 h1         1 2Q5       0.023200
     31 H14         -1.4230    -3.1250    -0.6030 h1         1 2Q5       0.022700
     32 H15         -0.5790    -2.2530    -2.7260 hc         1 2Q5       0.044367
     33 H16         -2.2920    -1.8260    -2.6400 hc         1 2Q5       0.044367
     34 H17         -1.0610    -0.5900    -2.3100 hc         1 2Q5       0.044367
     35 H18         -3.4770    -1.9160    -0.2940 h1         1 2Q5       0.022200
     36 H19         -2.4730    -1.6680     1.1490 h1         1 2Q5       0.022200
     37 H20         -3.5350     0.4770     1.6950 h1         1 2Q5       0.025700
     38 H21         -5.1260     0.3490    -0.9380 hc         1 2Q5       0.041700
     39 H22         -5.2750    -0.7320     0.4700 hc         1 2Q5       0.041700
     40 H23         -5.8020     0.9500     0.5910 hc         1 2Q5       0.041700
     41 H24         -4.0490     2.7890     1.1290 h1         1 2Q5       0.022700
     42 H25         -2.3420     2.4600     0.8160 h1         1 2Q5       0.022700
     43 H26         -3.2680     3.6500    -0.9080 ho         1 2Q5       0.498000
@<TRIPOS>BOND
     1     1     2 1   
     2     1    18 1   
     3     2     3 1   
     4     2     4 1   
     5     2    19 1   
     6     3    20 1   
     7     3    21 1   
     8     3    22 1   
     9     4     5 1   
    10     4    23 1   
    11     4    24 1   
    12     5     6 1   
    13     6     7 1   
    14     6     8 1   
    15     6    25 1   
    16     7    26 1   
    17     7    27 1   
    18     7    28 1   
    19     8     9 1   
    20     8    29 1   
    21     8    30 1   
    22     9    10 1   
    23    10    11 1   
    24    10    12 1   
    25    10    31 1   
    26    11    32 1   
    27    11    33 1   
    28    11    34 1   
    29    12    13 1   
    30    12    35 1   
    31    12    36 1   
    32    13    14 1   
    33    14    15 1   
    34    14    16 1   
    35    14    37 1   
    36    15    38 1   
    37    15    39 1   
    38    15    40 1   
    39    16    17 1   
    40    16    41 1   
    41    16    42 1   
    42    17    43 1   
@<TRIPOS>SUBSTRUCTURE
     1 2Q5         1 TEMP              0 ****  ****    0 ROOT
