@<TRIPOS>MOLECULE
2Q5
   43    42     1     0     0
SMALL
abcg2


@<TRIPOS>ATOM
      1 OH           3.1250     2.5570    -0.0450 oh         1 2Q5      -0.703000
      2 C2           4.0400     1.5290    -0.3740 c3         1 2Q5       0.176300
      3 C1           4.0190     1.2040    -1.8600 c3         1 2Q5      -0.125100
      4 C3           3.7220     0.3280     0.4950 c3         1 2Q5       0.168600
      5 O2           2.4700    -0.2000     0.1430 os         1 2Q5      -0.432000
      6 C5           2.1940    -1.4780     0.6780 c3         1 2Q5       0.179300
      7 C6           1.8800    -1.4280     2.1680 c3         1 2Q5      -0.117100
      8 C4           1.0710    -2.0850    -0.1400 c3         1 2Q5       0.167600
      9 O3          -0.1170    -1.3690     0.0710 os         1 2Q5      -0.428000
     10 C7          -1.2300    -1.8650    -0.6420 c3         1 2Q5       0.178300
     11 C9          -1.2260    -1.4110    -2.0970 c3         1 2Q5      -0.117100
     12 C8          -2.4860    -1.4350     0.0900 c3         1 2Q5       0.165600
     13 O4          -2.5810    -0.0360     0.1040 os         1 2Q5      -0.425000
     14 C11         -3.8280     0.4550     0.5570 c3         1 2Q5       0.173300
     15 C12         -4.8530     0.4870    -0.5690 c3         1 2Q5      -0.115100
     16 C10         -3.6040     1.8140     1.1900 c3         1 2Q5       0.167600
     17 O5          -3.1670     2.7370     0.2190 oh         1 2Q5      -0.703000
     18 H1           3.3320     3.3250    -0.5860 ho         1 2Q5       0.497000
     19 H2           5.0640     1.8260    -0.1020 h1         1 2Q5       0.021700
     20 H3           3.0300     0.8830    -2.1860 hc         1 2Q5       0.043033
     21 H4           4.3080     2.0760    -2.4490 hc         1 2Q5       0.043033
     22 H5           4.7290     0.4070    -2.0910 hc         1 2Q5       0.043033
     23 H6           4.5180    -0.4170     0.3510 h1         1 2Q5       0.024700
     24 H7           3.7560     0.6280     1.5510 h1         1 2Q5       0.024700
     25 H8           3.0650    -2.1360     0.5300 h1         1 2Q5       0.021700
     26 H9           1.6190    -2.4220     2.5340 hc         1 2Q5       0.043367
     27 H10          2.7410    -1.0890     2.7450 hc         1 2Q5       0.043367
     28 H11          1.0470    -0.7580     2.3780 hc         1 2Q5       0.043367
     29 H12          1.3660    -2.0870    -1.1980 h1         1 2Q5       0.023200
     30 H13          0.9540    -3.1360     0.1610 h1         1 2Q5       0.023200
     31 H14         -1.2290    -2.9650    -0.6170 h1         1 2Q5       0.022700
     32 H15         -0.3350    -1.7570    -2.6240 hc         1 2Q5       0.044367
     33 H16         -2.0910    -1.8210    -2.6220 hc         1 2Q5       0.044367
     34 H17         -1.2670    -0.3250    -2.1750 hc         1 2Q5       0.044367
     35 H18         -3.3420    -1.9000    -0.4160 h1         1 2Q5       0.022200
     36 H19         -2.4690    -1.8340     1.1150 h1         1 2Q5       0.022200
     37 H20         -4.2110    -0.1870     1.3640 h1         1 2Q5       0.025700
     38 H21         -4.5220     1.1230    -1.3890 hc         1 2Q5       0.041700
     39 H22         -5.0340    -0.5120    -0.9680 hc         1 2Q5       0.041700
     40 H23         -5.8090     0.8670    -0.2060 hc         1 2Q5       0.041700
     41 H24         -4.5500     2.1260     1.6510 h1         1 2Q5       0.022700
     42 H25         -2.8740     1.7070     2.0030 h1         1 2Q5       0.022700
     43 H26         -3.1040     3.6000     0.6380 ho         1 2Q5       0.498000
@<TRIPOS>BOND
     1     1     2 1   
     2     1    18 1   
     3     2     3 1   
     4     2     4 1   
     5     2    19 1   
     6     3    20 1   
     7     3    21 1   
     8     3    22 1   
     9     4     5 1   
    10     4    23 1   
    11     4    24 1   
    12     5     6 1   
    13     6     7 1   
    14     6     8 1   
    15     6    25 1   
    16     7    26 1   
    17     7    27 1   
    18     7    28 1   
    19     8     9 1   
    20     8    29 1   
    21     8    30 1   
    22     9    10 1   
    23    10    11 1   
    24    10    12 1   
    25    10    31 1   
    26    11    32 1   
    27    11    33 1   
    28    11    34 1   
    29    12    13 1   
    30    12    35 1   
    31    12    36 1   
    32    13    14 1   
    33    14    15 1   
    34    14    16 1   
    35    14    37 1   
    36    15    38 1   
    37    15    39 1   
    38    15    40 1   
    39    16    17 1   
    40    16    41 1   
    41    16    42 1   
    42    17    43 1   
@<TRIPOS>SUBSTRUCTURE
     1 2Q5         1 TEMP              0 ****  ****    0 ROOT
