@<TRIPOS>MOLECULE
2Q6
  109   114     1     0     0
SMALL
No Charge or Current Charge


@<TRIPOS>ATOM
      1 O1          -5.8430    -8.1840    -2.5490 o          1 2Q6      -0.570000
      2 C7          -2.7860    -7.8650    -6.0720 ca         1 2Q6      -0.031000
      3 O2          -3.6410   -14.6090    -7.5980 os         1 2Q6      -0.365100
      4 C6          -3.4610    -7.9330    -7.3050 ca         1 2Q6      -0.146000
      5 C1          -1.9810   -12.4010    -9.1200 c3         1 2Q6      -0.073400
      6 N1          -4.4380    -6.6610    -1.5460 n          1 2Q6      -0.409800
      7 C5          -2.8950    -8.6100    -8.3990 ca         1 2Q6      -0.085500
      8 C4          -1.6400    -9.2330    -8.2770 ca         1 2Q6      -0.097300
      9 C3          -1.0290    -9.9740    -9.4620 c3         1 2Q6      -0.029100
     10 C2          -0.7390   -11.4780    -9.2150 c3         1 2Q6      -0.067400
     11 O3          -0.2580   -14.5370   -11.6220 o          1 2Q6      -0.535000
     12 C30          0.4140   -15.5340   -11.4110 c          1 2Q6       0.631100
     13 O4           1.4900   -15.6070   -10.5800 os         1 2Q6      -0.472100
     14 C31          1.8370   -14.4250    -9.8360 c3         1 2Q6       0.170900
     15 C29         -0.9140   -17.0980   -12.8560 c3         1 2Q6       0.115000
     16 C28         -2.0540   -17.8260   -12.0920 c3         1 2Q6      -0.033400
     17 C32         -1.6960   -19.3030   -11.7610 c3         1 2Q6      -0.025100
     18 C33         -1.5310   -20.1700   -13.0050 ca         1 2Q6      -0.138300
     19 C37         -0.2560   -20.5570   -13.4520 ca         1 2Q6      -0.063000
     20 C36         -0.1600   -21.3530   -14.6070 ca         1 2Q6      -0.079000
     21 C38          1.1030   -21.7540   -15.0850 ca         1 2Q6      -0.093000
     22 C39          1.1980   -22.5490   -16.2380 ca         1 2Q6      -0.105000
     23 C40          0.0330   -22.9430   -16.9150 ca         1 2Q6      -0.102000
     24 C41         -1.2280   -22.5420   -16.4370 ca         1 2Q6      -0.081000
     25 C35         -1.3460   -21.7450   -15.2820 ca         1 2Q6       0.263000
     26 N4          -2.5710   -21.3720   -14.8440 nb         1 2Q6      -0.655000
     27 C34         -2.6560   -20.6050   -13.7320 ca         1 2Q6       0.352900
     28 C27         -2.5110   -17.0090   -10.8720 ca         1 2Q6      -0.124300
     29 C26         -3.3820   -15.9190   -11.0720 ca         1 2Q6      -0.066500
     30 C25         -3.7820   -15.1100    -9.9940 ca         1 2Q6      -0.164500
     31 C42         -2.0530   -17.2820    -9.5630 ca         1 2Q6      -0.066500
     32 C43         -2.4590   -16.4770    -8.4860 ca         1 2Q6      -0.164500
     33 C24         -3.3070   -15.3800    -8.6940 ca         1 2Q6       0.152100
     34 C23         -4.0280   -13.2200    -7.6900 c3         1 2Q6       0.169600
     35 C           -2.7670   -12.3230    -7.7840 c3         1 2Q6      -0.108400
     36 C9          -0.9530    -9.1550    -7.0510 ca         1 2Q6      -0.085500
     37 C8          -1.5190    -8.4780    -5.9560 ca         1 2Q6      -0.146000
     38 C10         -3.1000    -7.0040    -3.6670 c          1 2Q6       0.594100
     39 O           -2.1470    -7.5540    -3.1210 o          1 2Q6      -0.593100
     40 C11         -4.0790    -6.0750    -2.8870 c3         1 2Q6       0.036700
     41 C12         -3.6000    -4.5720    -2.8410 c6         1 2Q6      -0.065700
     42 C17         -3.1140    -4.0410    -4.2270 c6         1 2Q6      -0.072400
     43 C16         -2.6630    -2.5610    -4.1510 c6         1 2Q6      -0.072400
     44 C15         -3.7870    -1.6560    -3.5950 c6         1 2Q6      -0.076400
     45 C14         -4.2760    -2.1660    -2.2200 c6         1 2Q6      -0.072400
     46 C13         -4.7330    -3.6430    -2.3040 c6         1 2Q6      -0.072400
     47 C22         -3.5720    -6.3260    -0.3750 c6         1 2Q6       0.098000
     48 C21         -3.6640    -7.3310     0.7910 c6         1 2Q6      -0.094400
     49 C20         -5.1350    -7.6620     1.0920 c6         1 2Q6      -0.071400
     50 C19         -5.7770    -8.3750    -0.1210 c6         1 2Q6       0.093500
     51 N2          -5.4880    -9.8500    -0.0640 n8         1 2Q6      -0.994200
     52 C18         -5.3550    -7.7470    -1.5110 c          1 2Q6       0.561000
     53 H1          -4.4350    -7.4610    -7.4190 ha         1 2Q6       0.130000
     54 H2          -2.6560   -12.1920    -9.9590 hc         1 2Q6       0.046700
     55 H3          -1.6240   -13.4270    -9.2550 hc         1 2Q6       0.046700
     56 H4          -3.4390    -8.6540    -9.3400 ha         1 2Q6       0.113500
     57 H5          -0.0840    -9.4860    -9.7290 hc         1 2Q6       0.046200
     58 H6          -1.6690    -9.8800   -10.3490 hc         1 2Q6       0.046200
     59 H7          -0.1300   -11.8330   -10.0550 hc         1 2Q6       0.042700
     60 H8          -0.1180   -11.6020    -8.3210 hc         1 2Q6       0.042700
     61 H9           2.7180   -14.6130    -9.2090 h1         1 2Q6       0.048367
     62 H10          2.0710   -13.5910   -10.5100 h1         1 2Q6       0.048367
     63 H11          1.0110   -14.1210    -9.1790 h1         1 2Q6       0.048367
     64 H12          0.8740   -17.4810   -11.7240 hn         1 2Q6       0.314500
     65 H13         -1.3160   -16.1760   -13.2960 h1         1 2Q6       0.068700
     66 H14         -0.5580   -17.7210   -13.6860 h1         1 2Q6       0.068700
     67 H15         -2.9030   -17.8740   -12.7860 hc         1 2Q6       0.061700
     68 H16         -2.4900   -19.7260   -11.1320 hc         1 2Q6       0.054200
     69 H17         -0.7790   -19.3380   -11.1600 hc         1 2Q6       0.054200
     70 H18          0.6390   -20.2440   -12.9190 ha         1 2Q6       0.115000
     71 H19          2.0090   -21.4510   -14.5640 ha         1 2Q6       0.115000
     72 H20          2.1730   -22.8590   -16.6070 ha         1 2Q6       0.116000
     73 H21          0.1040   -23.5590   -17.8090 ha         1 2Q6       0.117000
     74 H22         -2.1250   -22.8510   -16.9660 ha         1 2Q6       0.132000
     75 H23         -3.6610   -20.3290   -13.4160 h4         1 2Q6       0.020100
     76 H24         -3.7430   -15.6870   -12.0720 ha         1 2Q6       0.108500
     77 H25         -4.4530   -14.2810   -10.1900 ha         1 2Q6       0.122000
     78 H26         -1.3690   -18.1020    -9.3670 ha         1 2Q6       0.108500
     79 H27         -2.0930   -16.6900    -7.4850 ha         1 2Q6       0.122000
     80 H28         -4.7130   -13.0250    -8.5230 h1         1 2Q6       0.051700
     81 H29         -4.5620   -12.9410    -6.7720 h1         1 2Q6       0.051700
     82 H30         -2.0950   -12.5650    -6.9510 hc         1 2Q6       0.054200
     83 H31         -3.1010   -11.2950    -7.6210 hc         1 2Q6       0.054200
     84 H32          0.0260    -9.6170    -6.9430 ha         1 2Q6       0.113500
     85 H33         -0.9520    -8.4360    -5.0320 ha         1 2Q6       0.130000
     86 H34         -4.2540    -6.6660    -5.2980 hn         1 2Q6       0.161000
     87 H35         -5.0000    -6.0580    -3.4840 h1         1 2Q6       0.089700
     88 H36         -2.7410    -4.5190    -2.1590 hc         1 2Q6       0.066700
     89 H37         -3.9160    -4.1420    -4.9710 hc         1 2Q6       0.043950
     90 H38         -2.2670    -4.6370    -4.5940 hc         1 2Q6       0.043950
     91 H39         -1.7730    -2.4780    -3.5120 hc         1 2Q6       0.041200
     92 H40         -2.3640    -2.2110    -5.1480 hc         1 2Q6       0.041200
     93 H41         -3.4250    -0.6230    -3.5030 hc         1 2Q6       0.040200
     94 H42         -4.6280    -1.6320    -4.3020 hc         1 2Q6       0.040200
     95 H43         -3.4710    -2.0680    -1.4780 hc         1 2Q6       0.041200
     96 H44         -5.1060    -1.5390    -1.8640 hc         1 2Q6       0.041200
     97 H45         -5.6130    -3.7140    -2.9590 hc         1 2Q6       0.043950
     98 H46         -5.0690    -3.9690    -1.3120 hc         1 2Q6       0.043950
     99 H47         -2.5230    -6.2580    -0.6940 h1         1 2Q6       0.059200
    100 H48         -3.8610    -5.3350     0.0020 h1         1 2Q6       0.059200
    101 H49         -3.1140    -8.2480     0.5380 hc         1 2Q6       0.057700
    102 H50         -3.1780    -6.9090     1.6820 hc         1 2Q6       0.057700
    103 H51         -5.6830    -6.7330     1.3030 hc         1 2Q6       0.058200
    104 H52         -5.2160    -8.2800     1.9970 hc         1 2Q6       0.058200
    105 H53         -6.8690    -8.2620    -0.0490 h1         1 2Q6       0.030700
    106 H54         -5.9450   -10.2520     0.7630 hn         1 2Q6       0.411000
    107 H55         -5.9680   -10.3070    -0.8510 hn         1 2Q6       0.411000
    108 N           -3.4180    -7.1590    -5.0130 ns         1 2Q6      -0.137000
    109 N3           0.2230   -16.7560   -11.9940 ns         1 2Q6      -0.488900
@<TRIPOS>BOND
     1     1    52 2   
     2     2     4 ar  
     3     2    37 ar  
     4     2   108 1   
     5     3    33 1   
     6     3    34 1   
     7     4     7 ar  
     8     4    53 1   
     9     5    10 1   
    10     5    35 1   
    11     5    54 1   
    12     5    55 1   
    13     6    40 1   
    14     6    47 1   
    15     6    52 1   
    16     7     8 ar  
    17     7    56 1   
    18     8     9 1   
    19     8    36 ar  
    20     9    10 1   
    21     9    57 1   
    22     9    58 1   
    23    10    59 1   
    24    10    60 1   
    25    11    12 2   
    26    12    13 1   
    27    12   109 1   
    28    13    14 1   
    29    14    61 1   
    30    14    62 1   
    31    14    63 1   
    32    15    16 1   
    33    15    65 1   
    34    15    66 1   
    35    15   109 1   
    36    16    17 1   
    37    16    28 1   
    38    16    67 1   
    39    17    18 1   
    40    17    68 1   
    41    17    69 1   
    42    18    19 ar  
    43    18    27 ar  
    44    19    20 ar  
    45    19    70 1   
    46    20    21 ar  
    47    20    25 ar  
    48    21    22 ar  
    49    21    71 1   
    50    22    23 ar  
    51    22    72 1   
    52    23    24 ar  
    53    23    73 1   
    54    24    25 ar  
    55    24    74 1   
    56    25    26 ar  
    57    26    27 ar  
    58    27    75 1   
    59    28    29 ar  
    60    28    31 ar  
    61    29    30 ar  
    62    29    76 1   
    63    30    33 ar  
    64    30    77 1   
    65    31    32 ar  
    66    31    78 1   
    67    32    33 ar  
    68    32    79 1   
    69    34    35 1   
    70    34    80 1   
    71    34    81 1   
    72    35    82 1   
    73    35    83 1   
    74    36    37 ar  
    75    36    84 1   
    76    37    85 1   
    77    38    39 2   
    78    38    40 1   
    79    38   108 1   
    80    40    41 1   
    81    40    87 1   
    82    41    42 1   
    83    41    46 1   
    84    41    88 1   
    85    42    43 1   
    86    42    89 1   
    87    42    90 1   
    88    43    44 1   
    89    43    91 1   
    90    43    92 1   
    91    44    45 1   
    92    44    93 1   
    93    44    94 1   
    94    45    46 1   
    95    45    95 1   
    96    45    96 1   
    97    46    97 1   
    98    46    98 1   
    99    47    48 1   
   100    47    99 1   
   101    47   100 1   
   102    48    49 1   
   103    48   101 1   
   104    48   102 1   
   105    49    50 1   
   106    49   103 1   
   107    49   104 1   
   108    50    51 1   
   109    50    52 1   
   110    50   105 1   
   111    51   106 1   
   112    51   107 1   
   113    64   109 1   
   114    86   108 1   
@<TRIPOS>SUBSTRUCTURE
     1 2Q6         1 TEMP              0 ****  ****    0 ROOT
