@<TRIPOS>MOLECULE
2Q6
  109   114     1     0     0
SMALL
abcg2


@<TRIPOS>ATOM
      1 O1          -6.6360    -7.4380    -3.4820 o          1 2Q6      -0.570000
      2 C7          -2.5460    -7.6690    -6.3750 ca         1 2Q6      -0.031000
      3 O2          -1.8220   -14.3840    -6.8560 os         1 2Q6      -0.365100
      4 C6          -3.1580    -8.2400    -7.4930 ca         1 2Q6      -0.146000
      5 C1          -0.7500   -12.0870    -8.5890 c3         1 2Q6      -0.073400
      6 N1          -4.6500    -6.9060    -2.4880 n          1 2Q6      -0.409800
      7 C5          -2.3990    -8.8700    -8.4670 ca         1 2Q6      -0.085500
      8 C4          -1.0100    -8.9550    -8.3600 ca         1 2Q6      -0.097300
      9 C3          -0.1880    -9.6880    -9.3850 c3         1 2Q6      -0.029100
     10 C2           0.3390   -11.0590    -8.9280 c3         1 2Q6      -0.067400
     11 O3           0.6060   -14.8980   -11.3780 o          1 2Q6      -0.535000
     12 C30          0.9860   -16.0570   -11.3270 c          1 2Q6       0.631100
     13 O4           2.0950   -16.4520   -10.6570 os         1 2Q6      -0.472100
     14 C31          2.8130   -15.4220    -9.9580 c3         1 2Q6       0.170900
     15 C29         -0.9330   -17.0670   -12.4950 c3         1 2Q6       0.115000
     16 C28         -2.0180   -17.6120   -11.5370 c3         1 2Q6      -0.033400
     17 C32         -1.8820   -19.1310   -11.2940 c3         1 2Q6      -0.025100
     18 C33         -2.0690   -19.9450   -12.5430 ca         1 2Q6      -0.138300
     19 C37         -1.0220   -20.4860   -13.2450 ca         1 2Q6      -0.063000
     20 C36         -1.2620   -21.2190   -14.4280 ca         1 2Q6      -0.079000
     21 C38         -0.2260   -21.8000   -15.1980 ca         1 2Q6      -0.093000
     22 C39         -0.5190   -22.5030   -16.3390 ca         1 2Q6      -0.105000
     23 C40         -1.8600   -22.6570   -16.7570 ca         1 2Q6      -0.102000
     24 C41         -2.8850   -22.1050   -16.0310 ca         1 2Q6      -0.081000
     25 C35         -2.6130   -21.3740   -14.8520 ca         1 2Q6       0.263000
     26 N4          -3.6510   -20.8370   -14.1470 nb         1 2Q6      -0.655000
     27 C34         -3.3750   -20.1620   -13.0550 ca         1 2Q6       0.352900
     28 C27         -2.0410   -16.8110   -10.2550 ca         1 2Q6      -0.124300
     29 C26         -2.8070   -15.6490   -10.1810 ca         1 2Q6      -0.066500
     30 C25         -2.7710   -14.8050    -9.0760 ca         1 2Q6      -0.164500
     31 C42         -1.2370   -17.1200    -9.1560 ca         1 2Q6      -0.066500
     32 C43         -1.1920   -16.2940    -8.0430 ca         1 2Q6      -0.164500
     33 C24         -1.9470   -15.1200    -7.9960 ca         1 2Q6       0.152100
     34 C23         -2.3140   -13.0340    -6.7810 c3         1 2Q6       0.169600
     35 C           -1.2510   -12.0130    -7.1450 c3         1 2Q6      -0.108400
     36 C9          -0.4130    -8.3730    -7.2420 ca         1 2Q6      -0.085500
     37 C8          -1.1550    -7.7380    -6.2540 ca         1 2Q6      -0.146000
     38 C10         -3.0770    -6.4140    -4.2750 c          1 2Q6       0.594100
     39 O           -1.9380    -6.2840    -3.8390 o          1 2Q6      -0.593100
     40 C11         -4.3050    -5.9110    -3.5050 c3         1 2Q6       0.036700
     41 C12         -4.0990    -4.5070    -2.9300 c6         1 2Q6      -0.065700
     42 C17         -3.8240    -3.5050    -4.0580 c6         1 2Q6      -0.072400
     43 C16         -3.6510    -2.0840    -3.5180 c6         1 2Q6      -0.072400
     44 C15         -4.8630    -1.6490    -2.6930 c6         1 2Q6      -0.076400
     45 C14         -5.1520    -2.6470    -1.5710 c6         1 2Q6      -0.072400
     46 C13         -5.3190    -4.0680    -2.1120 c6         1 2Q6      -0.072400
     47 C22         -3.7630    -7.1390    -1.3450 c6         1 2Q6       0.098000
     48 C21         -3.5260    -8.6340    -1.1490 c6         1 2Q6      -0.094400
     49 C20         -4.8500    -9.4250    -1.1590 c6         1 2Q6      -0.071400
     50 C19         -6.0700    -8.5180    -1.3930 c6         1 2Q6       0.093500
     51 N2          -7.2700    -9.3130    -1.6280 n8         1 2Q6      -0.994200
     52 C18         -5.8230    -7.5800    -2.5660 c          1 2Q6       0.561000
     53 H1          -4.2370    -8.1880    -7.5940 ha         1 2Q6       0.130000
     54 H2          -1.5900   -11.9660    -9.2810 hc         1 2Q6       0.046700
     55 H3          -0.3530   -13.0880    -8.7670 hc         1 2Q6       0.046700
     56 H4          -2.8970    -9.3160    -9.3190 ha         1 2Q6       0.113500
     57 H5           0.6690    -9.0690    -9.6670 hc         1 2Q6       0.046200
     58 H6          -0.7860    -9.8320   -10.2880 hc         1 2Q6       0.046200
     59 H7           0.9600   -11.4510    -9.7390 hc         1 2Q6       0.042700
     60 H8           1.0020   -10.9310    -8.0670 hc         1 2Q6       0.042700
     61 H9           3.6450   -15.9280    -9.4750 h1         1 2Q6       0.048367
     62 H10          3.1820   -14.6690   -10.6530 h1         1 2Q6       0.048367
     63 H11          2.1740   -14.9520    -9.2120 h1         1 2Q6       0.048367
     64 H12          0.8170   -18.0130   -11.7500 hn         1 2Q6       0.314500
     65 H13         -1.1530   -16.0280   -12.7280 h1         1 2Q6       0.068700
     66 H14         -0.9420   -17.6280   -13.4300 h1         1 2Q6       0.068700
     67 H15         -2.9710   -17.4450   -12.0480 hc         1 2Q6       0.061700
     68 H16         -2.6300   -19.4240   -10.5550 hc         1 2Q6       0.054200
     69 H17         -0.9080   -19.3610   -10.8610 hc         1 2Q6       0.054200
     70 H18         -0.0020   -20.3580   -12.8970 ha         1 2Q6       0.115000
     71 H19          0.8000   -21.6780   -14.8700 ha         1 2Q6       0.115000
     72 H20          0.2770   -22.9450   -16.9250 ha         1 2Q6       0.116000
     73 H21         -2.0750   -23.2150   -17.6600 ha         1 2Q6       0.117000
     74 H22         -3.9170   -22.2150   -16.3410 ha         1 2Q6       0.132000
     75 H23         -4.2230   -19.7500   -12.5140 h4         1 2Q6       0.020100
     76 H24         -3.4420   -15.3790   -11.0180 ha         1 2Q6       0.108500
     77 H25         -3.3660   -13.9050    -9.0860 ha         1 2Q6       0.122000
     78 H26         -0.6240   -18.0110    -9.1600 ha         1 2Q6       0.108500
     79 H27         -0.5570   -16.5400    -7.2010 ha         1 2Q6       0.122000
     80 H28         -3.2090   -12.9130    -7.3920 h1         1 2Q6       0.051700
     81 H29         -2.6030   -12.9050    -5.7370 h1         1 2Q6       0.051700
     82 H30         -0.4000   -12.1310    -6.4670 hc         1 2Q6       0.054200
     83 H31         -1.6790   -11.0300    -6.9390 hc         1 2Q6       0.054200
     84 H32          0.6640    -8.4240    -7.1290 ha         1 2Q6       0.113500
     85 H33         -0.6660    -7.3000    -5.4000 ha         1 2Q6       0.130000
     86 H34         -4.3710    -7.0840    -5.6600 hn         1 2Q6       0.161000
     87 H35         -5.1590    -5.8800    -4.1790 h1         1 2Q6       0.089700
     88 H36         -3.2250    -4.5210    -2.2710 hc         1 2Q6       0.066700
     89 H37         -4.6670    -3.5230    -4.7600 hc         1 2Q6       0.043950
     90 H38         -2.9360    -3.8010    -4.6200 hc         1 2Q6       0.043950
     91 H39         -2.7540    -2.0450    -2.8900 hc         1 2Q6       0.041200
     92 H40         -3.4870    -1.3900    -4.3460 hc         1 2Q6       0.041200
     93 H41         -4.7010    -0.6510    -2.2790 hc         1 2Q6       0.040200
     94 H42         -5.7390    -1.5830    -3.3480 hc         1 2Q6       0.040200
     95 H43         -4.3210    -2.6340    -0.8560 hc         1 2Q6       0.041200
     96 H44         -6.0480    -2.3520    -1.0200 hc         1 2Q6       0.041200
     97 H45         -6.2070    -4.1120    -2.7540 hc         1 2Q6       0.043950
     98 H46         -5.4900    -4.7640    -1.2890 hc         1 2Q6       0.043950
     99 H47         -2.8260    -6.6280    -1.5400 h1         1 2Q6       0.059200
    100 H48         -4.2020    -6.6960    -0.4450 h1         1 2Q6       0.059200
    101 H49         -2.8780    -8.9850    -1.9540 hc         1 2Q6       0.057700
    102 H50         -2.9870    -8.7800    -0.2130 hc         1 2Q6       0.057700
    103 H51         -4.9980    -9.9580    -0.2180 hc         1 2Q6       0.058200
    104 H52         -4.8420   -10.1740    -1.9520 hc         1 2Q6       0.058200
    105 H53         -6.1730    -7.8620    -0.5150 h1         1 2Q6       0.030700
    106 H54         -7.5880    -9.7090    -0.7500 hn         1 2Q6       0.411000
    107 H55         -8.0110    -8.7120    -1.9730 hn         1 2Q6       0.411000
    108 N           -3.3880    -7.0450    -5.4340 ns         1 2Q6      -0.137000
    109 N3           0.4070   -17.1120   -11.9400 ns         1 2Q6      -0.488900
@<TRIPOS>BOND
     1     1    52 2   
     2     2     4 ar  
     3     2    37 ar  
     4     2   108 1   
     5     3    33 1   
     6     3    34 1   
     7     4     7 ar  
     8     4    53 1   
     9     5    10 1   
    10     5    35 1   
    11     5    54 1   
    12     5    55 1   
    13     6    40 1   
    14     6    47 1   
    15     6    52 1   
    16     7     8 ar  
    17     7    56 1   
    18     8     9 1   
    19     8    36 ar  
    20     9    10 1   
    21     9    57 1   
    22     9    58 1   
    23    10    59 1   
    24    10    60 1   
    25    11    12 2   
    26    12    13 1   
    27    12   109 1   
    28    13    14 1   
    29    14    61 1   
    30    14    62 1   
    31    14    63 1   
    32    15    16 1   
    33    15    65 1   
    34    15    66 1   
    35    15   109 1   
    36    16    17 1   
    37    16    28 1   
    38    16    67 1   
    39    17    18 1   
    40    17    68 1   
    41    17    69 1   
    42    18    19 ar  
    43    18    27 ar  
    44    19    20 ar  
    45    19    70 1   
    46    20    21 ar  
    47    20    25 ar  
    48    21    22 ar  
    49    21    71 1   
    50    22    23 ar  
    51    22    72 1   
    52    23    24 ar  
    53    23    73 1   
    54    24    25 ar  
    55    24    74 1   
    56    25    26 ar  
    57    26    27 ar  
    58    27    75 1   
    59    28    29 ar  
    60    28    31 ar  
    61    29    30 ar  
    62    29    76 1   
    63    30    33 ar  
    64    30    77 1   
    65    31    32 ar  
    66    31    78 1   
    67    32    33 ar  
    68    32    79 1   
    69    34    35 1   
    70    34    80 1   
    71    34    81 1   
    72    35    82 1   
    73    35    83 1   
    74    36    37 ar  
    75    36    84 1   
    76    37    85 1   
    77    38    39 2   
    78    38    40 1   
    79    38   108 1   
    80    40    41 1   
    81    40    87 1   
    82    41    42 1   
    83    41    46 1   
    84    41    88 1   
    85    42    43 1   
    86    42    89 1   
    87    42    90 1   
    88    43    44 1   
    89    43    91 1   
    90    43    92 1   
    91    44    45 1   
    92    44    93 1   
    93    44    94 1   
    94    45    46 1   
    95    45    95 1   
    96    45    96 1   
    97    46    97 1   
    98    46    98 1   
    99    47    48 1   
   100    47    99 1   
   101    47   100 1   
   102    48    49 1   
   103    48   101 1   
   104    48   102 1   
   105    49    50 1   
   106    49   103 1   
   107    49   104 1   
   108    50    51 1   
   109    50    52 1   
   110    50   105 1   
   111    51   106 1   
   112    51   107 1   
   113    64   109 1   
   114    86   108 1   
@<TRIPOS>SUBSTRUCTURE
     1 2Q6         1 TEMP              0 ****  ****    0 ROOT
