@<TRIPOS>MOLECULE
2Q7
   79    83     1     0     0
SMALL
No Charge or Current Charge


@<TRIPOS>ATOM
      1 C10        -16.5600     8.2980    26.4160 cp         1 2Q7      -0.307500
      2 N12        -18.3680     9.5190    27.5410 nb         1 2Q7      -0.339000
      3 C13        -18.7450    10.4020    28.4820 ca         1 2Q7       0.448900
      4 C15        -20.6340    11.7810    29.4890 c6         1 2Q7       0.202300
      5 C21        -27.7040    11.4790    28.5860 c          1 2Q7       0.608100
      6 C22        -29.1080    11.4220    29.2260 c6         1 2Q7      -0.135700
      7 C24        -30.7400    12.3670    30.9500 c6         1 2Q7       0.102500
      8 C28        -33.8220     9.6620    29.0010 c2         1 2Q7      -0.282000
      9 C02        -15.5410     6.6520    24.5380 ca         1 2Q7       0.405900
     10 C04        -17.2920     7.1620    25.9380 ca         1 2Q7       0.132300
     11 C05        -18.6730     6.7380    26.4710 c3         1 2Q7       0.136000
     12 C09        -15.2720     8.4860    25.8490 ca         1 2Q7       0.196900
     13 C11        -17.0530     9.2580    27.4570 cp         1 2Q7       0.308500
     14 C16        -22.0330    11.4590    30.0780 c6         1 2Q7       0.068500
     15 C18        -24.4160    10.9270    29.4740 c          1 2Q7       0.588100
     16 C19        -25.4400    10.3500    28.4570 c3         1 2Q7       0.023000
     17 C23        -29.3930    12.5890    30.2080 c6         1 2Q7      -0.085400
     18 C27        -34.0590    10.5650    29.9880 ce         1 2Q7      -0.265200
     19 C30        -31.5780    11.8680    28.6410 c6         1 2Q7       0.102500
     20 C31        -30.2600    11.1760    28.2060 c6         1 2Q7      -0.085400
     21 C34        -22.5100    10.0190    28.0670 c6         1 2Q7       0.068500
     22 C35        -21.0990    10.3660    27.5180 c6         1 2Q7       0.202300
     23 C37        -16.5990    10.7080    29.1630 ca         1 2Q7       0.453900
     24 C39        -16.0570    12.5000    30.8930 c6         1 2Q7       0.187800
     25 C40        -15.0830    12.7310    32.0860 c6         1 2Q7       0.131600
     26 C42        -13.3040    11.5450    30.9990 c6         1 2Q7       0.131600
     27 C43        -14.1770    11.2470    29.7450 c6         1 2Q7       0.187800
     28 F06        -19.2000     5.6740    25.8150 f          1 2Q7      -0.112000
     29 F07        -18.6120     6.3880    27.7770 f          1 2Q7      -0.112000
     30 N01        -15.0340     5.8270    23.5900 nv         1 2Q7      -1.064900
     31 N03        -16.7620     6.3500    24.9940 nb         1 2Q7      -0.239000
     32 N08        -14.7620     7.6710    24.9100 nb         1 2Q7      -0.248000
     33 N14        -20.1300    10.6830    28.6100 nh         1 2Q7      -0.760300
     34 N17        -23.0510    10.9640    29.0970 n          1 2Q7      -0.415800
     35 N20        -26.8420    10.4610    28.9290 ns         1 2Q7      -0.487900
     36 N25        -31.8150    11.7570    30.1080 n          1 2Q7      -0.412800
     37 N36        -17.8960    11.0200    29.3210 nb         1 2Q7      -0.356000
     38 N38        -15.6580    11.3340    30.0220 nh         1 2Q7      -0.769300
     39 N44        -16.1340     9.8370    28.2490 nb         1 2Q7      -0.322000
     40 O29        -33.3850    11.9600    31.7560 o          1 2Q7      -0.602100
     41 O32        -27.3770    12.3750    27.8200 o          1 2Q7      -0.596100
     42 O33        -24.7740    11.3830    30.5560 o          1 2Q7      -0.597100
     43 O41        -13.7120    12.7770    31.6340 os         1 2Q7      -0.445000
     44 H151       -19.9610    11.9730    30.3370 h1         1 2Q7       0.076450
     45 H152       -20.7000    12.7170    28.9140 h1         1 2Q7       0.076450
     46 H221       -29.0940    10.5250    29.8610 hc         1 2Q7       0.057700
     47 H241       -30.5600    11.6960    31.8020 h1         1 2Q7       0.054700
     48 H242       -31.0900    13.3250    31.3630 h1         1 2Q7       0.054700
     49 H281       -32.8310     9.4760    28.5860 ha         1 2Q7       0.168000
     50 H282       -34.6240     9.0360    28.6050 ha         1 2Q7       0.168000
     51 H051       -19.3800     7.5660    26.3670 h2         1 2Q7       0.086700
     52 H091       -14.6380     9.3210    26.1450 h4         1 2Q7       0.042100
     53 H162       -22.4100    12.3630    30.5760 h1         1 2Q7       0.063950
     54 H161       -21.9100    10.6930    30.8560 h1         1 2Q7       0.063950
     55 H191       -25.2020     9.2920    28.2960 h1         1 2Q7       0.073200
     56 H192       -25.3170    10.8810    27.5050 h1         1 2Q7       0.073200
     57 H231       -28.5790    12.6910    30.9390 hc         1 2Q7       0.062700
     58 H232       -29.4300    13.5360    29.6510 hc         1 2Q7       0.062700
     59 H271       -35.0620    10.6310    30.4080 ha         1 2Q7       0.198000
     60 H302       -31.4970    12.9380    28.4020 h1         1 2Q7       0.054700
     61 H301       -32.4250    11.5070    28.0460 h1         1 2Q7       0.054700
     62 H311       -29.9810    11.5500    27.2110 hc         1 2Q7       0.062700
     63 H312       -30.4230    10.0960    28.0910 hc         1 2Q7       0.062700
     64 H341       -23.1910     9.9610    27.2080 h1         1 2Q7       0.063950
     65 H342       -22.4670     9.0160    28.5130 h1         1 2Q7       0.063950
     66 H352       -20.7690     9.5170    26.9040 h1         1 2Q7       0.076450
     67 H351       -21.1880    11.2300    26.8420 h1         1 2Q7       0.076450
     68 H392       -16.0980    13.4200    30.2900 h1         1 2Q7       0.073200
     69 H391       -17.0600    12.3510    31.3190 h1         1 2Q7       0.073200
     70 H401       -15.1950    11.9190    32.8190 h1         1 2Q7       0.056200
     71 H402       -15.3300    13.6770    32.5880 h1         1 2Q7       0.056200
     72 H422       -13.3960    10.7200    31.7200 h1         1 2Q7       0.056200
     73 H421       -12.2480    11.6220    30.7070 h1         1 2Q7       0.056200
     74 H432       -13.9040    11.9570    28.9510 h1         1 2Q7       0.073200
     75 H431       -13.8990    10.2440    29.3900 h1         1 2Q7       0.073200
     76 H011       -14.2270     6.1450    23.0560 hn         1 2Q7       0.511500
     77 H012       -15.6660     5.1860    23.1150 hn         1 2Q7       0.511500
     78 H201       -27.1890     9.7720    29.5880 hn         1 2Q7       0.320500
     79 C26        -33.0810    11.4780    30.6730 c          1 2Q7       0.599300
@<TRIPOS>BOND
     1     1    10 ar  
     2     1    12 ar  
     3     1    13 1   
     4     2     3 ar  
     5     2    13 ar  
     6     3    33 1   
     7     3    37 ar  
     8     4    14 1   
     9     4    33 1   
    10     4    44 1   
    11     4    45 1   
    12     5     6 1   
    13     5    35 1   
    14     5    41 2   
    15     6    17 1   
    16     6    20 1   
    17     6    46 1   
    18     7    17 1   
    19     7    36 1   
    20     7    47 1   
    21     7    48 1   
    22     8    18 2   
    23     8    49 1   
    24     8    50 1   
    25     9    30 1   
    26     9    31 ar  
    27     9    32 ar  
    28    10    11 1   
    29    10    31 ar  
    30    11    28 1   
    31    11    29 1   
    32    11    51 1   
    33    12    32 ar  
    34    12    52 1   
    35    13    39 ar  
    36    14    34 1   
    37    14    53 1   
    38    14    54 1   
    39    15    16 1   
    40    15    34 1   
    41    15    42 2   
    42    16    35 1   
    43    16    55 1   
    44    16    56 1   
    45    17    57 1   
    46    17    58 1   
    47    18    59 1   
    48    18    79 1   
    49    19    20 1   
    50    19    36 1   
    51    19    60 1   
    52    19    61 1   
    53    20    62 1   
    54    20    63 1   
    55    21    22 1   
    56    21    34 1   
    57    21    64 1   
    58    21    65 1   
    59    22    33 1   
    60    22    66 1   
    61    22    67 1   
    62    23    37 ar  
    63    23    38 1   
    64    23    39 ar  
    65    24    25 1   
    66    24    38 1   
    67    24    68 1   
    68    24    69 1   
    69    25    43 1   
    70    25    70 1   
    71    25    71 1   
    72    26    27 1   
    73    26    43 1   
    74    26    72 1   
    75    26    73 1   
    76    27    38 1   
    77    27    74 1   
    78    27    75 1   
    79    30    76 1   
    80    30    77 1   
    81    35    78 1   
    82    36    79 1   
    83    40    79 2   
@<TRIPOS>SUBSTRUCTURE
     1 2Q7         1 TEMP              0 ****  ****    0 ROOT
