@<TRIPOS>MOLECULE
2Q7
   79    83     1     0     0
SMALL
bcc


@<TRIPOS>ATOM
      1 C10        -16.9430     8.4970    26.5030 cp         1 2Q7      -0.438100
      2 N12        -18.7290     9.9230    27.2050 nb         1 2Q7      -0.865000
      3 C13        -19.1430    10.9150    28.0090 ca         1 2Q7       0.974900
      4 C15        -21.0660    12.0940    28.9660 c6         1 2Q7       0.202300
      5 C21        -27.1820    10.9010    28.5390 c          1 2Q7       0.675100
      6 C22        -28.5440    11.0300    29.1920 c6         1 2Q7      -0.135700
      7 C24        -29.7450    11.9490    31.1860 c6         1 2Q7       0.102500
      8 C28        -33.1160    10.2330    28.8620 c2         1 2Q7      -0.182000
      9 C02        -15.9020     6.5690    24.9450 ca         1 2Q7       0.931900
     10 C04        -17.6840     7.3840    26.0930 ca         1 2Q7       0.460600
     11 C05        -19.1080     7.1540    26.5610 c3         1 2Q7       0.378600
     12 C09        -15.6170     8.5010    26.0710 ca         1 2Q7       0.525200
     13 C11        -17.4510     9.6060    27.3260 cp         1 2Q7       0.834500
     14 C16        -21.9150    11.2270    29.8910 c6         1 2Q7       0.068500
     15 C18        -24.1880    10.4830    29.4110 c          1 2Q7       0.655100
     16 C19        -25.1100     9.6350    28.5290 c3         1 2Q7       0.023000
     17 C23        -28.4500    12.0000    30.3770 c6         1 2Q7      -0.085400
     18 C27        -33.1930    11.0770    29.8840 ce         1 2Q7      -0.215200
     19 C30        -30.6860    12.3340    28.9530 c6         1 2Q7       0.102500
     20 C31        -29.6190    11.5270    28.2160 c6         1 2Q7      -0.085400
     21 C34        -22.2560     9.6440    28.0780 c6         1 2Q7       0.068500
     22 C35        -21.4130    10.5270    27.1680 c6         1 2Q7       0.202300
     23 C37        -17.0710    11.2120    28.8490 ca         1 2Q7       0.979900
     24 C39        -16.6400    12.9510    30.5300 c6         1 2Q7       0.187800
     25 C40        -16.2760    12.6010    31.9640 c6         1 2Q7       0.108400
     26 C42        -14.5250    11.2360    31.2560 c6         1 2Q7       0.108400
     27 C43        -14.8220    11.5310    29.7950 c6         1 2Q7       0.187800
     28 F06        -19.5470     5.9430    26.1520 f          1 2Q7      -0.233300
     29 F07        -19.1150     7.1350    27.9240 f          1 2Q7      -0.233300
     30 N01        -15.4030     5.6200    24.1510 nv         1 2Q7      -0.954500
     31 N03        -17.1800     6.4420    25.3290 nb         1 2Q7      -0.765000
     32 N08        -15.0890     7.5700    25.3070 nb         1 2Q7      -0.774000
     33 N14        -20.4440    11.2680    27.9490 nh         1 2Q7      -0.760300
     34 N17        -22.8690    10.4460    29.1230 n          1 2Q7      -0.482800
     35 N20        -26.4870     9.8000    28.8840 ns         1 2Q7      -0.554900
     36 N25        -30.8940    11.8180    30.2950 n          1 2Q7      -0.479800
     37 N36        -18.3500    11.5830    28.8400 nb         1 2Q7      -0.882000
     38 N38        -16.2240    11.8770    29.6490 nh         1 2Q7      -0.769300
     39 N44        -16.5740    10.2050    28.1110 nb         1 2Q7      -0.848000
     40 O29        -32.2220    11.1970    32.0070 o          1 2Q7      -0.602100
     41 O32        -26.7380    11.7440    27.7750 o          1 2Q7      -0.596100
     42 O33        -24.6460    11.1440    30.3280 o          1 2Q7      -0.597100
     43 O41        -14.9030    12.3060    32.0930 os         1 2Q7      -0.398600
     44 H151       -20.3080    12.6180    29.5390 h1         1 2Q7       0.076450
     45 H152       -21.6970    12.8390    28.4750 h1         1 2Q7       0.076450
     46 H221       -28.8470    10.0550    29.5870 hc         1 2Q7       0.057700
     47 H241       -29.7190    11.0820    31.8470 h1         1 2Q7       0.054700
     48 H242       -29.8380    12.8390    31.8160 h1         1 2Q7       0.054700
     49 H281       -32.1820     9.7780    28.5550 ha         1 2Q7       0.118000
     50 H282       -33.9970     9.9530    28.3000 ha         1 2Q7       0.118000
     51 H051       -19.8020     7.9150    26.2140 h2         1 2Q7       0.086700
     52 H091       -14.9650     9.3170    26.3610 h4         1 2Q7       0.042100
     53 H162       -22.4440    11.8550    30.6030 h1         1 2Q7       0.063950
     54 H161       -21.2640    10.5510    30.4550 h1         1 2Q7       0.063950
     55 H191       -24.8530     8.5790    28.6320 h1         1 2Q7       0.073200
     56 H192       -24.9720     9.8920    27.4770 h1         1 2Q7       0.073200
     57 H231       -27.6210    11.7380    31.0360 hc         1 2Q7       0.062700
     58 H232       -28.2500    13.0090    30.0090 hc         1 2Q7       0.062700
     59 H271       -34.1530    11.4820    30.1850 ha         1 2Q7       0.148000
     60 H302       -30.3700    13.3780    29.0400 h1         1 2Q7       0.054700
     61 H301       -31.6210    12.3440    28.4030 h1         1 2Q7       0.054700
     62 H311       -29.1720    12.1670    27.4530 hc         1 2Q7       0.062700
     63 H312       -30.0670    10.6770    27.6980 hc         1 2Q7       0.062700
     64 H341       -23.0030     9.1270    27.4830 h1         1 2Q7       0.063950
     65 H342       -21.6170     8.8790    28.5330 h1         1 2Q7       0.063950
     66 H352       -20.9130     9.9240    26.4170 h1         1 2Q7       0.076450
     67 H351       -22.0610    11.2420    26.6530 h1         1 2Q7       0.076450
     68 H392       -16.1330    13.8740    30.2310 h1         1 2Q7       0.073200
     69 H391       -17.7110    13.1120    30.4440 h1         1 2Q7       0.073200
     70 H401       -16.8880    11.7510    32.2950 h1         1 2Q7       0.056200
     71 H402       -16.4910    13.4480    32.6170 h1         1 2Q7       0.056200
     72 H422       -15.0480    10.3140    31.5490 h1         1 2Q7       0.056200
     73 H421       -13.4550    11.0770    31.3920 h1         1 2Q7       0.056200
     74 H432       -14.2090    12.3700    29.4490 h1         1 2Q7       0.073200
     75 H431       -14.5850    10.6650    29.1840 h1         1 2Q7       0.073200
     76 H011       -14.4480     5.6640    23.8420 hn         1 2Q7       0.456300
     77 H012       -15.9720     4.8440    23.8600 hn         1 2Q7       0.456300
     78 H201       -26.8680     9.1860    29.5850 hn         1 2Q7       0.320500
     79 C26        -32.0620    11.3840    30.8050 c          1 2Q7       0.666300
@<TRIPOS>BOND
     1     1    10 ar  
     2     1    12 ar  
     3     1    13 1   
     4     2     3 ar  
     5     2    13 ar  
     6     3    33 1   
     7     3    37 ar  
     8     4    14 1   
     9     4    33 1   
    10     4    44 1   
    11     4    45 1   
    12     5     6 1   
    13     5    35 1   
    14     5    41 2   
    15     6    17 1   
    16     6    20 1   
    17     6    46 1   
    18     7    17 1   
    19     7    36 1   
    20     7    47 1   
    21     7    48 1   
    22     8    18 2   
    23     8    49 1   
    24     8    50 1   
    25     9    30 1   
    26     9    31 ar  
    27     9    32 ar  
    28    10    11 1   
    29    10    31 ar  
    30    11    28 1   
    31    11    29 1   
    32    11    51 1   
    33    12    32 ar  
    34    12    52 1   
    35    13    39 ar  
    36    14    34 1   
    37    14    53 1   
    38    14    54 1   
    39    15    16 1   
    40    15    34 1   
    41    15    42 2   
    42    16    35 1   
    43    16    55 1   
    44    16    56 1   
    45    17    57 1   
    46    17    58 1   
    47    18    59 1   
    48    18    79 1   
    49    19    20 1   
    50    19    36 1   
    51    19    60 1   
    52    19    61 1   
    53    20    62 1   
    54    20    63 1   
    55    21    22 1   
    56    21    34 1   
    57    21    64 1   
    58    21    65 1   
    59    22    33 1   
    60    22    66 1   
    61    22    67 1   
    62    23    37 ar  
    63    23    38 1   
    64    23    39 ar  
    65    24    25 1   
    66    24    38 1   
    67    24    68 1   
    68    24    69 1   
    69    25    43 1   
    70    25    70 1   
    71    25    71 1   
    72    26    27 1   
    73    26    43 1   
    74    26    72 1   
    75    26    73 1   
    76    27    38 1   
    77    27    74 1   
    78    27    75 1   
    79    30    76 1   
    80    30    77 1   
    81    35    78 1   
    82    36    79 1   
    83    40    79 2   
@<TRIPOS>SUBSTRUCTURE
     1 2Q7         1 TEMP              0 ****  ****    0 ROOT
