@<TRIPOS>MOLECULE
2Q8
   51    54     1     0     0
SMALL
bcc


@<TRIPOS>ATOM
      1 O1          -4.7370    -0.5250    -0.2640 o          1 2Q8      -0.543100
      2 C18         -3.6160    -1.0090    -0.2980 c          1 2Q8       0.615700
      3 C19         -3.3960    -2.4970    -0.4910 c6         1 2Q8      -0.174400
      4 C1          -2.1310    -3.0600     0.1760 c6         1 2Q8      -0.033000
      5 C20         -1.9630    -4.5240    -0.2250 c3         1 2Q8      -0.088100
      6 C           -2.2590    -2.9750     1.6990 c3         1 2Q8      -0.088100
      7 C4          -2.4100    -0.2190    -0.2060 cc         1 2Q8      -0.244600
      8 C5          -2.2230     1.1910    -0.0630 cc         1 2Q8      -0.057300
      9 C16         -3.1850     2.3270    -0.0050 c6         1 2Q8      -0.001100
     10 C15         -2.4440     3.5840     0.4400 c6         1 2Q8       0.160800
     11 N2          -1.1940     3.7490    -0.2880 n3         1 2Q8      -0.708600
     12 C17         -0.6320     5.0680    -0.1010 c3         1 2Q8       0.151100
     13 C14         -0.2230     2.7320     0.0780 c6         1 2Q8       0.241100
     14 C6          -0.8820     1.3990     0.0030 cd         1 2Q8      -0.130600
     15 N           -0.2360     0.1750    -0.0860 na         1 2Q8       0.022800
     16 C3          -1.1630    -0.8100    -0.2110 cd         1 2Q8      -0.036600
     17 C2          -0.9000    -2.2690    -0.3020 c6         1 2Q8      -0.012100
     18 C7           1.1630    -0.0070    -0.0300 ca         1 2Q8       0.013800
     19 C12          1.8260    -0.6480    -1.0710 ca         1 2Q8      -0.137500
     20 C11          3.1950    -0.8360    -0.9990 ca         1 2Q8      -0.081500
     21 C10          3.9240    -0.3560     0.0860 ca         1 2Q8      -0.150600
     22 C13          5.4020    -0.5940     0.1080 c          1 2Q8       0.683700
     23 N1           6.1260     0.2390     0.8690 nt         1 2Q8      -0.669000
     24 O            5.8980    -1.5060    -0.5370 o          1 2Q8      -0.598100
     25 C9           3.2490     0.2900     1.1190 ca         1 2Q8      -0.081500
     26 C8           1.8750     0.4540     1.0700 ca         1 2Q8      -0.137500
     27 H1          -4.2800    -3.0340    -0.1390 hc         1 2Q8       0.067700
     28 H2          -3.3380    -2.6670    -1.5740 hc         1 2Q8       0.067700
     29 H3          -1.0690    -4.9530     0.2320 hc         1 2Q8       0.038200
     30 H4          -2.8200    -5.1170     0.1000 hc         1 2Q8       0.038200
     31 H5          -1.8700    -4.6330    -1.3070 hc         1 2Q8       0.038200
     32 H6          -2.3780    -1.9510     2.0550 hc         1 2Q8       0.038200
     33 H7          -3.1250    -3.5460     2.0410 hc         1 2Q8       0.038200
     34 H8          -1.3750    -3.3920     2.1860 hc         1 2Q8       0.038200
     35 H9          -3.6470     2.4900    -0.9840 hc         1 2Q8       0.066200
     36 H10         -4.0010     2.1200     0.6900 hc         1 2Q8       0.066200
     37 H11         -3.0680     4.4610     0.2560 h1         1 2Q8       0.033200
     38 H12         -2.2710     3.5420     1.5290 h1         1 2Q8       0.033200
     39 H14         -0.3610     5.2810     0.9440 h1         1 2Q8       0.031033
     40 H15          0.2680     5.1800    -0.7080 h1         1 2Q8       0.031033
     41 H16         -1.3470     5.8260    -0.4230 h1         1 2Q8       0.031033
     42 H17          0.6260     2.7850    -0.6120 h1         1 2Q8       0.038200
     43 H18          0.1850     2.9150     1.0890 h1         1 2Q8       0.038200
     44 H19         -0.0210    -2.5570     0.2810 hc         1 2Q8       0.058700
     45 H20         -0.6800    -2.5410    -1.3410 hc         1 2Q8       0.058700
     46 H21          1.2790    -0.9920    -1.9380 ha         1 2Q8       0.151000
     47 H22          3.7020    -1.3440    -1.8090 ha         1 2Q8       0.148000
     48 H23          5.7420     1.0690     1.2850 hn         1 2Q8       0.315500
     49 H24          7.1260     0.1310     0.9110 hn         1 2Q8       0.315500
     50 H25          3.7750     0.6440     1.9960 ha         1 2Q8       0.148000
     51 H26          1.3580     0.9210     1.8980 ha         1 2Q8       0.151000
@<TRIPOS>BOND
     1     1     2 2   
     2     2     3 1   
     3     2     7 1   
     4     3     4 1   
     5     3    27 1   
     6     3    28 1   
     7     4     5 1   
     8     4     6 1   
     9     4    17 1   
    10     5    29 1   
    11     5    30 1   
    12     5    31 1   
    13     6    32 1   
    14     6    33 1   
    15     6    34 1   
    16     7     8 1   
    17     7    16 2   
    18     8     9 1   
    19     8    14 2   
    20     9    10 1   
    21     9    35 1   
    22     9    36 1   
    23    10    11 1   
    24    10    37 1   
    25    10    38 1   
    26    11    12 1   
    27    11    13 1   
    28    12    39 1   
    29    12    40 1   
    30    12    41 1   
    31    13    14 1   
    32    13    42 1   
    33    13    43 1   
    34    14    15 1   
    35    15    16 1   
    36    15    18 1   
    37    16    17 1   
    38    17    44 1   
    39    17    45 1   
    40    18    19 ar  
    41    18    26 ar  
    42    19    20 ar  
    43    19    46 1   
    44    20    21 ar  
    45    20    47 1   
    46    21    22 1   
    47    21    25 ar  
    48    22    23 1   
    49    22    24 2   
    50    23    48 1   
    51    23    49 1   
    52    25    26 ar  
    53    25    50 1   
    54    26    51 1   
@<TRIPOS>SUBSTRUCTURE
     1 2Q8         1 TEMP              0 ****  ****    0 ROOT
