@<TRIPOS>MOLECULE
2Q8
   51    54     1     0     0
SMALL
No Charge or Current Charge


@<TRIPOS>ATOM
      1 O1          -4.5710    -0.4610     0.5920 o          1 2Q8      -0.543100
      2 C18         -3.5440    -0.9660     0.1560 c          1 2Q8       0.615700
      3 C19         -3.4020    -2.4940     0.0080 c6         1 2Q8      -0.174400
      4 C1          -1.9610    -3.0340     0.2820 c6         1 2Q8      -0.033000
      5 C20         -1.9120    -4.5670     0.0100 c3         1 2Q8      -0.088100
      6 C           -1.5820    -2.8210     1.7810 c3         1 2Q8      -0.088100
      7 C4          -2.3390    -0.1970    -0.2390 cc         1 2Q8      -0.244600
      8 C5          -2.1330     1.2090    -0.2160 cc         1 2Q8      -0.057300
      9 C16         -3.1050     2.2750     0.2180 c6         1 2Q8      -0.001100
     10 C15         -2.3390     3.6020     0.4950 c6         1 2Q8       0.160800
     11 N2          -1.2950     3.8960    -0.5370 n3         1 2Q8      -0.708600
     12 C17         -0.7390     5.2600    -0.4120 c3         1 2Q8       0.151100
     13 C14         -0.2250     2.8540    -0.5630 c6         1 2Q8       0.241100
     14 C6          -0.8500     1.4790    -0.5940 cd         1 2Q8      -0.181300
     15 N           -0.2990     0.2450    -0.9370 na         1 2Q8       0.124200
     16 C3          -1.1700    -0.8030    -0.6230 cd         1 2Q8      -0.087300
     17 C2          -0.9400    -2.3000    -0.6450 c6         1 2Q8      -0.012100
     18 C7           1.0370     0.0630    -0.5770 ca         1 2Q8       0.013800
     19 C12          2.0240    -0.0190    -1.5730 ca         1 2Q8      -0.119500
     20 C11          3.3720    -0.2040    -1.2230 ca         1 2Q8      -0.063500
     21 C10          3.7600    -0.3120     0.1330 ca         1 2Q8      -0.150600
     22 C13          5.2210    -0.5120     0.4760 c          1 2Q8       0.616700
     23 N1           5.5680    -0.6120     1.7780 nt         1 2Q8      -0.602000
     24 O            6.0930    -0.5860    -0.3740 o          1 2Q8      -0.598100
     25 C9           2.7580    -0.2270     1.1310 ca         1 2Q8      -0.063500
     26 C8           1.4110    -0.0420     0.7760 ca         1 2Q8      -0.119500
     27 H1          -4.1750    -2.9990     0.6020 hc         1 2Q8       0.067700
     28 H2          -3.6180    -2.7000    -1.0490 hc         1 2Q8       0.067700
     29 H3          -0.9100    -4.9740     0.1900 hc         1 2Q8       0.038200
     30 H4          -2.6110    -5.1110     0.6560 hc         1 2Q8       0.038200
     31 H5          -2.1780    -4.7980    -1.0280 hc         1 2Q8       0.038200
     32 H6          -1.5730    -1.7600     2.0560 hc         1 2Q8       0.038200
     33 H7          -2.2930    -3.3240     2.4480 hc         1 2Q8       0.038200
     34 H8          -0.5850    -3.2200     2.0030 hc         1 2Q8       0.038200
     35 H9          -3.8520     2.4440    -0.5680 hc         1 2Q8       0.066200
     36 H10         -3.6550     1.9810     1.1210 hc         1 2Q8       0.066200
     37 H11         -3.0720     4.4210     0.5480 h1         1 2Q8       0.033200
     38 H12         -1.8660     3.5350     1.4870 h1         1 2Q8       0.033200
     39 H14         -0.2180     5.3840     0.5470 h1         1 2Q8       0.031033
     40 H15         -0.0240     5.4620    -1.2210 h1         1 2Q8       0.031033
     41 H16         -1.5370     6.0110    -0.4710 h1         1 2Q8       0.031033
     42 H17          0.4220     2.9890    -1.4430 h1         1 2Q8       0.038200
     43 H18          0.4150     2.9380     0.3280 h1         1 2Q8       0.038200
     44 H19          0.0880    -2.5470    -0.3480 hc         1 2Q8       0.058700
     45 H20         -1.0490    -2.6600    -1.6780 hc         1 2Q8       0.058700
     46 H21          1.7450     0.0600    -2.6220 ha         1 2Q8       0.133000
     47 H22          4.1180    -0.2650    -2.0130 ha         1 2Q8       0.130000
     48 H23          4.8670    -0.5540     2.4990 hn         1 2Q8       0.315500
     49 H24          6.5390    -0.7450     2.0170 hn         1 2Q8       0.315500
     50 H25          3.0070    -0.3040     2.1870 ha         1 2Q8       0.130000
     51 H26          0.6540     0.0200     1.5550 ha         1 2Q8       0.133000
@<TRIPOS>BOND
     1     1     2 2   
     2     2     3 1   
     3     2     7 1   
     4     3     4 1   
     5     3    27 1   
     6     3    28 1   
     7     4     5 1   
     8     4     6 1   
     9     4    17 1   
    10     5    29 1   
    11     5    30 1   
    12     5    31 1   
    13     6    32 1   
    14     6    33 1   
    15     6    34 1   
    16     7     8 1   
    17     7    16 2   
    18     8     9 1   
    19     8    14 2   
    20     9    10 1   
    21     9    35 1   
    22     9    36 1   
    23    10    11 1   
    24    10    37 1   
    25    10    38 1   
    26    11    12 1   
    27    11    13 1   
    28    12    39 1   
    29    12    40 1   
    30    12    41 1   
    31    13    14 1   
    32    13    42 1   
    33    13    43 1   
    34    14    15 1   
    35    15    16 1   
    36    15    18 1   
    37    16    17 1   
    38    17    44 1   
    39    17    45 1   
    40    18    19 ar  
    41    18    26 ar  
    42    19    20 ar  
    43    19    46 1   
    44    20    21 ar  
    45    20    47 1   
    46    21    22 1   
    47    21    25 ar  
    48    22    23 1   
    49    22    24 2   
    50    23    48 1   
    51    23    49 1   
    52    25    26 ar  
    53    25    50 1   
    54    26    51 1   
@<TRIPOS>SUBSTRUCTURE
     1 2Q8         1 TEMP              0 ****  ****    0 ROOT
