@<TRIPOS>MOLECULE
2Q9
   66    70     1     0     0
SMALL
No Charge or Current Charge


@<TRIPOS>ATOM
      1 N            3.0810     1.2960    -1.5290 nu         1 2Q9      -0.962200
      2 C            2.5170     3.5350    -0.6620 c3         1 2Q9      -0.112100
      3 C20         -4.2750     1.0440     0.5740 c          1 2Q9       0.617700
      4 C21         -3.9230     2.4190     1.1760 c6         1 2Q9      -0.174400
      5 C22         -2.5250     2.9720     0.7530 c6         1 2Q9      -0.033000
      6 C25         -2.2320     4.3010     1.5110 c3         1 2Q9      -0.087100
      7 C24         -2.5130     3.3030    -0.7730 c3         1 2Q9      -0.087100
      8 C23         -1.4240     1.9190     1.0900 c6         1 2Q9      -0.012100
      9 C12         -1.8260     0.5550     0.5830 cc         1 2Q9      -0.089300
     10 C13         -3.1150     0.1430     0.3450 cd         1 2Q9      -0.249600
     11 C14         -3.0730    -1.1900    -0.1530 cd         1 2Q9      -0.064300
     12 C18         -4.2220    -2.0730    -0.5780 c6         1 2Q9      -0.000100
     13 C17         -3.6940    -3.2980    -1.3790 c6         1 2Q9       0.163800
     14 N3          -2.4750    -3.9060    -0.7590 n3         1 2Q9      -0.713600
     15 C19         -2.1100    -5.2010    -1.3700 c3         1 2Q9       0.153100
     16 C16         -1.3240    -2.9530    -0.7330 c6         1 2Q9       0.241100
     17 C15         -1.7760    -1.6140    -0.2060 cc         1 2Q9      -0.175300
     18 N2          -1.0260    -0.5340     0.2400 na         1 2Q9       0.123200
     19 C5           0.3680    -0.5030     0.2250 ca         1 2Q9       0.068800
     20 C4           1.0460     0.3560    -0.6510 ca         1 2Q9      -0.229000
     21 C6           1.1070    -1.3270     1.0850 ca         1 2Q9      -0.191000
     22 C7           2.5100    -1.3020     1.0650 ca         1 2Q9       0.014700
     23 C11          3.2820    -2.1840     2.0420 c6         1 2Q9      -0.057100
     24 C10          4.6720    -2.5710     1.5130 c6         1 2Q9       0.113000
     25 N1           5.3370    -1.4420     0.8600 ns         1 2Q9      -0.497900
     26 C9           4.7090    -0.4290     0.1820 c          1 2Q9       0.592600
     27 O            5.3870     0.4180    -0.3810 o          1 2Q9      -0.609000
     28 C8           3.1980    -0.4320     0.1860 ca         1 2Q9      -0.256600
     29 C3           2.4470     0.4120    -0.6630 ca         1 2Q9       0.417000
     30 C1           2.6150     2.6330    -1.9090 c3         1 2Q9       0.238500
     31 C2           3.5760     3.2100    -2.9630 c3         1 2Q9      -0.112100
     32 H1           4.1000     1.2140    -1.4320 hn         1 2Q9       0.532000
     33 H2           1.8020     3.1290     0.0620 hc         1 2Q9       0.045033
     34 H3           3.4920     3.6290    -0.1680 hc         1 2Q9       0.045033
     35 H4           2.1760     4.5390    -0.9420 hc         1 2Q9       0.045033
     36 H5          -4.7440     3.1260     0.9930 hc         1 2Q9       0.066700
     37 H6          -3.8800     2.2520     2.2610 hc         1 2Q9       0.066700
     38 H7          -1.2520     4.7110     1.2360 hc         1 2Q9       0.037200
     39 H8          -2.9860     5.0650     1.2870 hc         1 2Q9       0.037200
     40 H9          -2.2310     4.1500     2.5970 hc         1 2Q9       0.037200
     41 H10         -2.6990     2.4140    -1.3870 hc         1 2Q9       0.037200
     42 H11         -3.2830     4.0420    -1.0270 hc         1 2Q9       0.037200
     43 H12         -1.5450     3.7140    -1.0850 hc         1 2Q9       0.037200
     44 H13         -0.4600     2.2390     0.6730 hc         1 2Q9       0.058700
     45 H14         -1.2760     1.8700     2.1780 hc         1 2Q9       0.058700
     46 H15         -4.7640    -2.4250     0.3090 hc         1 2Q9       0.064200
     47 H16         -4.9450    -1.5190    -1.1910 hc         1 2Q9       0.064200
     48 H17         -4.5020    -4.0410    -1.4510 h1         1 2Q9       0.032700
     49 H18         -3.4640    -2.9760    -2.4060 h1         1 2Q9       0.032700
     50 H20         -1.8440    -5.0740    -2.4280 h1         1 2Q9       0.030033
     51 H21         -1.2510    -5.6460    -0.8500 h1         1 2Q9       0.030033
     52 H22         -2.9470    -5.9090    -1.3080 h1         1 2Q9       0.030033
     53 H23         -0.5150    -3.3560    -0.1070 h1         1 2Q9       0.040700
     54 H24         -0.9130    -2.8230    -1.7460 h1         1 2Q9       0.040700
     55 H25          0.4710     0.9820    -1.3230 ha         1 2Q9       0.133000
     56 H26          0.5850    -1.9860     1.7760 ha         1 2Q9       0.134000
     57 H27          3.3980    -1.6380     2.9880 hc         1 2Q9       0.067200
     58 H28          2.7160    -3.0950     2.2790 hc         1 2Q9       0.067200
     59 H29          5.3030    -2.9440     2.3330 h1         1 2Q9       0.046700
     60 H30          4.5690    -3.3760     0.7710 h1         1 2Q9       0.046700
     61 H31          6.3490    -1.4140     0.8510 hn         1 2Q9       0.322500
     62 H32          1.6190     2.5680    -2.3690 h1         1 2Q9       0.054700
     63 H33          4.5910     3.3080    -2.5610 hc         1 2Q9       0.045033
     64 H34          3.6140     2.5620    -3.8470 hc         1 2Q9       0.045033
     65 H35          3.2380     4.2020    -3.2860 hc         1 2Q9       0.045033
     66 O1          -5.4290     0.7470     0.2920 o          1 2Q9      -0.546100
@<TRIPOS>BOND
     1     1    29 1   
     2     1    30 1   
     3     1    32 1   
     4     2    30 1   
     5     2    33 1   
     6     2    34 1   
     7     2    35 1   
     8     3     4 1   
     9     3    10 1   
    10     3    66 2   
    11     4     5 1   
    12     4    36 1   
    13     4    37 1   
    14     5     6 1   
    15     5     7 1   
    16     5     8 1   
    17     6    38 1   
    18     6    39 1   
    19     6    40 1   
    20     7    41 1   
    21     7    42 1   
    22     7    43 1   
    23     8     9 1   
    24     8    44 1   
    25     8    45 1   
    26     9    10 2   
    27     9    18 1   
    28    10    11 1   
    29    11    12 1   
    30    11    17 2   
    31    12    13 1   
    32    12    46 1   
    33    12    47 1   
    34    13    14 1   
    35    13    48 1   
    36    13    49 1   
    37    14    15 1   
    38    14    16 1   
    39    15    50 1   
    40    15    51 1   
    41    15    52 1   
    42    16    17 1   
    43    16    53 1   
    44    16    54 1   
    45    17    18 1   
    46    18    19 1   
    47    19    20 ar  
    48    19    21 ar  
    49    20    29 ar  
    50    20    55 1   
    51    21    22 ar  
    52    21    56 1   
    53    22    23 1   
    54    22    28 ar  
    55    23    24 1   
    56    23    57 1   
    57    23    58 1   
    58    24    25 1   
    59    24    59 1   
    60    24    60 1   
    61    25    26 1   
    62    25    61 1   
    63    26    27 2   
    64    26    28 1   
    65    28    29 ar  
    66    30    31 1   
    67    30    62 1   
    68    31    63 1   
    69    31    64 1   
    70    31    65 1   
@<TRIPOS>SUBSTRUCTURE
     1 2Q9         1 TEMP              0 ****  ****    0 ROOT
