@<TRIPOS>MOLECULE
2Q9
   66    70     1     0     0
SMALL
bcc


@<TRIPOS>ATOM
      1 N            3.1780     1.3360    -1.3150 nu         1 2Q9      -0.768600
      2 C            2.0060     3.5140    -1.3840 c3         1 2Q9      -0.112100
      3 C20         -4.2140     1.0630     0.6620 c          1 2Q9       0.617700
      4 C21         -3.8300     2.3640     1.3410 c6         1 2Q9      -0.174400
      5 C22         -2.4490     2.9240     0.9660 c6         1 2Q9      -0.033000
      6 C25         -2.1430     4.1320     1.8480 c3         1 2Q9      -0.087100
      7 C24         -2.4380     3.3630    -0.5000 c3         1 2Q9      -0.087100
      8 C23         -1.3780     1.8460     1.2040 c6         1 2Q9      -0.012100
      9 C12         -1.8050     0.5620     0.5910 cc         1 2Q9      -0.038600
     10 C13         -3.1120     0.1820     0.3570 cd         1 2Q9      -0.249600
     11 C14         -3.0850    -1.1330    -0.2050 cd         1 2Q9      -0.064300
     12 C18         -4.1640    -2.0350    -0.7010 c6         1 2Q9      -0.000100
     13 C17         -3.5400    -3.1340    -1.5570 c6         1 2Q9       0.163800
     14 N3          -2.3780    -3.7200    -0.9070 n3         1 2Q9      -0.713600
     15 C19         -1.9590    -4.9450    -1.5500 c3         1 2Q9       0.153100
     16 C16         -1.2700    -2.7860    -0.8190 c6         1 2Q9       0.241100
     17 C15         -1.7780    -1.5000    -0.2690 cc         1 2Q9      -0.124600
     18 N2          -1.0000    -0.4610     0.2110 na         1 2Q9       0.021800
     19 C5           0.4170    -0.4550     0.2670 ca         1 2Q9       0.068800
     20 C4           1.1040     0.4060    -0.5590 ca         1 2Q9      -0.247000
     21 C6           1.0730    -1.2970     1.1550 ca         1 2Q9      -0.209000
     22 C7           2.4560    -1.2670     1.1990 ca         1 2Q9       0.014700
     23 C11          3.1920    -2.1400     2.1740 c6         1 2Q9      -0.057100
     24 C10          4.5180    -2.5750     1.5920 c6         1 2Q9       0.113000
     25 N1           5.2380    -1.4050     1.1380 ns         1 2Q9      -0.564900
     26 C9           4.6690    -0.3810     0.4810 c          1 2Q9       0.735100
     27 O            5.3630     0.5200    -0.0010 o          1 2Q9      -0.684500
     28 C8           3.1900    -0.3950     0.3820 ca         1 2Q9      -0.256600
     29 C3           2.5100     0.4830    -0.5120 ca         1 2Q9       0.278600
     30 C1           2.5670     2.3310    -2.1730 c3         1 2Q9       0.238500
     31 C2           3.6020     2.7940    -3.1880 c3         1 2Q9      -0.112100
     32 H1           4.1680     1.4170    -1.1210 hn         1 2Q9       0.476800
     33 H2           1.2860     3.1980    -0.6280 hc         1 2Q9       0.045033
     34 H3           2.8090     4.0490    -0.8750 hc         1 2Q9       0.045033
     35 H4           1.5000     4.2130    -2.0510 hc         1 2Q9       0.045033
     36 H5          -4.6060     3.1090     1.1510 hc         1 2Q9       0.066700
     37 H6          -3.8540     2.1650     2.4210 hc         1 2Q9       0.066700
     38 H7          -1.1650     4.5530     1.6070 hc         1 2Q9       0.037200
     39 H8          -2.8870     4.9170     1.7060 hc         1 2Q9       0.037200
     40 H9          -2.1390     3.8620     2.9060 hc         1 2Q9       0.037200
     41 H10         -2.6530     2.5410    -1.1850 hc         1 2Q9       0.037200
     42 H11         -3.1850     4.1400    -0.6750 hc         1 2Q9       0.037200
     43 H12         -1.4640     3.7740    -0.7740 hc         1 2Q9       0.037200
     44 H13         -0.4160     2.1840     0.8090 hc         1 2Q9       0.058700
     45 H14         -1.2310     1.7040     2.2810 hc         1 2Q9       0.058700
     46 H15         -4.7120    -2.4780     0.1370 hc         1 2Q9       0.064200
     47 H16         -4.8980    -1.4850    -1.2920 hc         1 2Q9       0.064200
     48 H17         -4.2730    -3.9260    -1.7220 h1         1 2Q9       0.032700
     49 H18         -3.2840    -2.7270    -2.5500 h1         1 2Q9       0.032700
     50 H20         -1.6570    -4.8080    -2.5990 h1         1 2Q9       0.030033
     51 H21         -1.1110    -5.3740    -1.0140 h1         1 2Q9       0.030033
     52 H22         -2.7700    -5.6740    -1.5280 h1         1 2Q9       0.030033
     53 H23         -0.4970    -3.2180    -0.1750 h1         1 2Q9       0.040700
     54 H24         -0.7920    -2.6150    -1.8010 h1         1 2Q9       0.040700
     55 H25          0.5430     1.0290    -1.2410 ha         1 2Q9       0.151000
     56 H26          0.5140    -1.9530     1.8110 ha         1 2Q9       0.152000
     57 H27          3.3630    -1.5830     3.1000 hc         1 2Q9       0.067200
     58 H28          2.5930    -3.0130     2.4340 hc         1 2Q9       0.067200
     59 H29          5.1220    -3.0770     2.3450 h1         1 2Q9       0.046700
     60 H30          4.3610    -3.2810     0.7700 h1         1 2Q9       0.046700
     61 H31          6.2470    -1.4280     1.1450 hn         1 2Q9       0.322500
     62 H32          1.7520     1.8570    -2.7280 h1         1 2Q9       0.054700
     63 H33          4.4390     3.2910    -2.6940 hc         1 2Q9       0.045033
     64 H34          3.9920     1.9550    -3.7640 hc         1 2Q9       0.045033
     65 H35          3.1580     3.5060    -3.8830 hc         1 2Q9       0.045033
     66 O1          -5.3810     0.7800     0.4380 o          1 2Q9      -0.546100
@<TRIPOS>BOND
     1     1    29 1   
     2     1    30 1   
     3     1    32 1   
     4     2    30 1   
     5     2    33 1   
     6     2    34 1   
     7     2    35 1   
     8     3     4 1   
     9     3    10 1   
    10     3    66 2   
    11     4     5 1   
    12     4    36 1   
    13     4    37 1   
    14     5     6 1   
    15     5     7 1   
    16     5     8 1   
    17     6    38 1   
    18     6    39 1   
    19     6    40 1   
    20     7    41 1   
    21     7    42 1   
    22     7    43 1   
    23     8     9 1   
    24     8    44 1   
    25     8    45 1   
    26     9    10 2   
    27     9    18 1   
    28    10    11 1   
    29    11    12 1   
    30    11    17 2   
    31    12    13 1   
    32    12    46 1   
    33    12    47 1   
    34    13    14 1   
    35    13    48 1   
    36    13    49 1   
    37    14    15 1   
    38    14    16 1   
    39    15    50 1   
    40    15    51 1   
    41    15    52 1   
    42    16    17 1   
    43    16    53 1   
    44    16    54 1   
    45    17    18 1   
    46    18    19 1   
    47    19    20 ar  
    48    19    21 ar  
    49    20    29 ar  
    50    20    55 1   
    51    21    22 ar  
    52    21    56 1   
    53    22    23 1   
    54    22    28 ar  
    55    23    24 1   
    56    23    57 1   
    57    23    58 1   
    58    24    25 1   
    59    24    59 1   
    60    24    60 1   
    61    25    26 1   
    62    25    61 1   
    63    26    27 2   
    64    26    28 1   
    65    28    29 ar  
    66    30    31 1   
    67    30    62 1   
    68    31    63 1   
    69    31    64 1   
    70    31    65 1   
@<TRIPOS>SUBSTRUCTURE
     1 2Q9         1 TEMP              0 ****  ****    0 ROOT
