@<TRIPOS>MOLECULE
2QA
   59    63     1     0     0
SMALL
abcg2


@<TRIPOS>ATOM
      1 C1           2.8100     2.0550    -1.0830 cc         1 2QA      -0.069300
      2 C2           1.4780     1.7960    -1.1970 cd         1 2QA      -0.203000
      3 C3           2.3040     0.1670     0.0890 cd         1 2QA      -0.093300
      4 C4           3.3410     1.0140    -0.2550 cc         1 2QA      -0.256600
      5 C5           4.6910     0.7720     0.2030 c          1 2QA       0.616700
      6 C6           4.8540    -0.3980     1.1540 c6         1 2QA      -0.174400
      7 C22         -4.0530    -1.5770    -0.4920 c          1 2QA       0.577600
      8 N1          -4.1070    -2.9190    -0.5110 ns         1 2QA      -0.510900
      9 C23         -2.9470    -3.7830    -0.4710 c6         1 2QA       0.115000
     10 C24         -1.8480    -3.1610    -1.3080 c6         1 2QA      -0.059100
     11 C13         -1.6010    -1.7570    -0.8390 ca         1 2QA      -0.045300
     12 C12         -0.3260    -1.2210    -0.8820 ca         1 2QA      -0.125000
     13 C14         -2.6800    -0.9880    -0.3710 ca         1 2QA      -0.139600
     14 C15         -2.4620     0.3080     0.1250 ca         1 2QA       0.010700
     15 C17         -3.5350     1.1960     0.7090 c5         1 2QA      -0.032400
     16 C21         -4.0020     2.2660    -0.3120 c5         1 2QA      -0.073900
     17 C20         -4.2190     3.5350     0.5070 c5         1 2QA      -0.081900
     18 C19         -3.0980     3.4750     1.5380 c5         1 2QA      -0.081900
     19 C18         -3.0950     2.0060     1.9610 c5         1 2QA      -0.073900
     20 C16         -1.1640     0.8140     0.0800 ca         1 2QA      -0.126000
     21 C11         -0.1140     0.0710    -0.4280 ca         1 2QA       0.015800
     22 N            1.1780     0.6430    -0.4890 na         1 2QA       0.120200
     23 C8           2.4230    -0.9980     1.0020 c6         1 2QA      -0.012100
     24 C7           3.8570    -1.5520     0.9620 c6         1 2QA      -0.033000
     25 C10          4.0280    -2.5590     2.0960 c3         1 2QA      -0.087100
     26 C9           4.1140    -2.2590    -0.3710 c3         1 2QA      -0.087100
     27 O            5.6400     1.4730    -0.1100 o          1 2QA      -0.543100
     28 C            3.5480     3.1880    -1.7110 c3         1 2QA      -0.017800
     29 H1           0.7090     2.3130    -1.7500 h4         1 2QA       0.153000
     30 H2           5.8800    -0.7690     1.0870 hc         1 2QA       0.067200
     31 H3           4.7390     0.0070     2.1680 hc         1 2QA       0.067200
     32 H4          -5.0190    -3.3360    -0.6140 hn         1 2QA       0.324500
     33 H5          -2.6020    -3.9350     0.5560 h1         1 2QA       0.049700
     34 H6          -3.2340    -4.7540    -0.8680 h1         1 2QA       0.049700
     35 H7          -0.9350    -3.7530    -1.2340 hc         1 2QA       0.066200
     36 H8          -2.1450    -3.1600    -2.3610 hc         1 2QA       0.066200
     37 H9           0.4920    -1.8060    -1.2850 ha         1 2QA       0.130000
     38 H10         -4.3890     0.5860     0.9850 hc         1 2QA       0.081700
     39 H11         -3.2180     2.4430    -1.0530 hc         1 2QA       0.048450
     40 H12         -4.8880     1.9390    -0.8570 hc         1 2QA       0.048450
     41 H13         -4.2010     4.4390    -0.1040 hc         1 2QA       0.043700
     42 H14         -5.1890     3.5020     1.0120 hc         1 2QA       0.043700
     43 H15         -2.1460     3.7430     1.0670 hc         1 2QA       0.043700
     44 H16         -3.2420     4.1560     2.3780 hc         1 2QA       0.043700
     45 H17         -3.8380     1.8560     2.7470 hc         1 2QA       0.048450
     46 H18         -2.1400     1.6820     2.3770 hc         1 2QA       0.048450
     47 H19         -0.9610     1.8090     0.4570 ha         1 2QA       0.137000
     48 H20          2.1840    -0.6770     2.0230 hc         1 2QA       0.057200
     49 H21          1.7120    -1.7900     0.7620 hc         1 2QA       0.057200
     50 H22          3.3150    -3.3800     1.9960 hc         1 2QA       0.037533
     51 H23          5.0320    -2.9890     2.0920 hc         1 2QA       0.037533
     52 H24          3.8700    -2.0930     3.0700 hc         1 2QA       0.037533
     53 H25          4.0180    -1.5900    -1.2280 hc         1 2QA       0.037533
     54 H26          5.1210    -2.6790    -0.3940 hc         1 2QA       0.037533
     55 H27          3.4090    -3.0800    -0.5120 hc         1 2QA       0.037533
     56 H28          4.0590     3.7980    -0.9650 hc         1 2QA       0.044700
     57 H29          4.3120     2.8340    -2.4040 hc         1 2QA       0.044700
     58 H30          2.8680     3.8350    -2.2640 hc         1 2QA       0.044700
     59 O1          -5.0630    -0.8910    -0.6030 o          1 2QA      -0.562000
@<TRIPOS>BOND
     1     1     2 2   
     2     1     4 1   
     3     1    28 1   
     4     2    22 1   
     5     2    29 1   
     6     3     4 2   
     7     3    22 1   
     8     3    23 1   
     9     4     5 1   
    10     5     6 1   
    11     5    27 2   
    12     6    24 1   
    13     6    30 1   
    14     6    31 1   
    15     7     8 1   
    16     7    13 1   
    17     7    59 2   
    18     8     9 1   
    19     8    32 1   
    20     9    10 1   
    21     9    33 1   
    22     9    34 1   
    23    10    11 1   
    24    10    35 1   
    25    10    36 1   
    26    11    12 ar  
    27    11    13 ar  
    28    12    21 ar  
    29    12    37 1   
    30    13    14 ar  
    31    14    15 1   
    32    14    20 ar  
    33    15    16 1   
    34    15    19 1   
    35    15    38 1   
    36    16    17 1   
    37    16    39 1   
    38    16    40 1   
    39    17    18 1   
    40    17    41 1   
    41    17    42 1   
    42    18    19 1   
    43    18    43 1   
    44    18    44 1   
    45    19    45 1   
    46    19    46 1   
    47    20    21 ar  
    48    20    47 1   
    49    21    22 1   
    50    23    24 1   
    51    23    48 1   
    52    23    49 1   
    53    24    25 1   
    54    24    26 1   
    55    25    50 1   
    56    25    51 1   
    57    25    52 1   
    58    26    53 1   
    59    26    54 1   
    60    26    55 1   
    61    28    56 1   
    62    28    57 1   
    63    28    58 1   
@<TRIPOS>SUBSTRUCTURE
     1 2QA         1 TEMP              0 ****  ****    0 ROOT
