@<TRIPOS>MOLECULE
2QA
   59    63     1     0     0
SMALL
No Charge or Current Charge


@<TRIPOS>ATOM
      1 C1           2.9870     1.5990    -1.7970 cc         1 2QA      -0.069300
      2 C2           1.6200     1.7350    -1.7970 cd         1 2QA      -0.203000
      3 C3           2.2350     0.6110     0.1180 cd         1 2QA      -0.093300
      4 C4           3.3570     0.8990    -0.6110 cc         1 2QA      -0.256600
      5 C5           4.7060     0.4310    -0.1990 c          1 2QA       0.616700
      6 C6           4.7440    -0.3070     1.1550 c6         1 2QA      -0.174400
      7 C22         -3.8160    -1.5890    -0.7660 c          1 2QA       0.577600
      8 N1          -3.7410    -2.8970    -1.1800 ns         1 2QA      -0.510900
      9 C23         -2.5070    -3.6080    -1.5110 c6         1 2QA       0.115000
     10 C24         -1.4670    -2.6460    -2.1040 c6         1 2QA      -0.059100
     11 C13         -1.3660    -1.3500    -1.3010 ca         1 2QA      -0.045300
     12 C12         -0.1430    -0.6660    -1.2880 ca         1 2QA      -0.125000
     13 C14         -2.4970    -0.8360    -0.6140 ca         1 2QA      -0.139600
     14 C15         -2.3580     0.3620     0.1580 ca         1 2QA       0.010700
     15 C17         -3.5000     0.9390     1.0340 c5         1 2QA      -0.032400
     16 C21         -4.0670     2.1940     0.2960 c5         1 2QA      -0.073900
     17 C20         -4.4580     3.1140     1.4770 c5         1 2QA      -0.081900
     18 C19         -3.1690     3.0240     2.3280 c5         1 2QA      -0.081900
     19 C18         -2.9550     1.4850     2.4070 c5         1 2QA      -0.073900
     20 C16         -1.1150     1.0410     0.1210 ca         1 2QA      -0.126000
     21 C11         -0.0170     0.5410    -0.5900 ca         1 2QA       0.015800
     22 N            1.1950     1.2300    -0.5690 na         1 2QA       0.120200
     23 C8           2.2040    -0.2320     1.3750 c6         1 2QA      -0.012100
     24 C7           3.4640    -1.1500     1.4600 c6         1 2QA      -0.033000
     25 C10          3.5690    -1.7710     2.8840 c3         1 2QA      -0.087100
     26 C9           3.3430    -2.3330     0.4500 c3         1 2QA      -0.087100
     27 O            5.7210     0.5770    -0.8680 o          1 2QA      -0.543100
     28 C            3.9420     2.0240    -2.8810 c3         1 2QA      -0.017800
     29 H1           0.9420     2.1330    -2.5410 h4         1 2QA       0.153000
     30 H2           5.6740    -0.8840     1.2380 hc         1 2QA       0.067200
     31 H3           4.7830     0.4870     1.9130 hc         1 2QA       0.067200
     32 H4          -4.6260    -3.3760    -1.2970 hn         1 2QA       0.324500
     33 H5          -2.1110    -4.0570    -0.5880 h1         1 2QA       0.049700
     34 H6          -2.7280    -4.4190    -2.2200 h1         1 2QA       0.049700
     35 H7          -0.4930    -3.1510    -2.1570 hc         1 2QA       0.066200
     36 H8          -1.7470    -2.4030    -3.1380 hc         1 2QA       0.066200
     37 H9           0.7120    -1.0650    -1.8300 ha         1 2QA       0.130000
     38 H10         -4.2880     0.2180     1.2650 hc         1 2QA       0.081700
     39 H11         -3.3210     2.6800    -0.3450 hc         1 2QA       0.048450
     40 H12         -4.9230     1.9460    -0.3430 hc         1 2QA       0.048450
     41 H13         -4.6770     4.1380     1.1540 hc         1 2QA       0.043700
     42 H14         -5.3370     2.7390     2.0170 hc         1 2QA       0.043700
     43 H15         -2.3280     3.5310     1.8410 hc         1 2QA       0.043700
     44 H16         -3.2900     3.4770     3.3190 hc         1 2QA       0.043700
     45 H17         -3.5470     1.0690     3.2310 hc         1 2QA       0.048450
     46 H18         -1.9170     1.2120     2.6270 hc         1 2QA       0.048450
     47 H19         -0.9860     1.9760     0.6590 ha         1 2QA       0.137000
     48 H20          2.1680     0.4330     2.2490 hc         1 2QA       0.057200
     49 H21          1.2900    -0.8400     1.4230 hc         1 2QA       0.057200
     50 H22          2.6800    -2.3650     3.1290 hc         1 2QA       0.037533
     51 H23          4.4410    -2.4310     2.9710 hc         1 2QA       0.037533
     52 H24          3.6680    -0.9960     3.6540 hc         1 2QA       0.037533
     53 H25          3.2430    -1.9820    -0.5840 hc         1 2QA       0.037533
     54 H26          4.2250    -2.9840     0.4890 hc         1 2QA       0.037533
     55 H27          2.4650    -2.9550     0.6650 hc         1 2QA       0.037533
     56 H28          4.7190     2.6860    -2.4820 hc         1 2QA       0.044700
     57 H29          4.4310     1.1550    -3.3360 hc         1 2QA       0.044700
     58 H30          3.4160     2.5660    -3.6760 hc         1 2QA       0.044700
     59 O1          -4.9200    -1.0900    -0.6190 o          1 2QA      -0.562000
@<TRIPOS>BOND
     1     1     2 2   
     2     1     4 1   
     3     1    28 1   
     4     2    22 1   
     5     2    29 1   
     6     3     4 2   
     7     3    22 1   
     8     3    23 1   
     9     4     5 1   
    10     5     6 1   
    11     5    27 2   
    12     6    24 1   
    13     6    30 1   
    14     6    31 1   
    15     7     8 1   
    16     7    13 1   
    17     7    59 2   
    18     8     9 1   
    19     8    32 1   
    20     9    10 1   
    21     9    33 1   
    22     9    34 1   
    23    10    11 1   
    24    10    35 1   
    25    10    36 1   
    26    11    12 ar  
    27    11    13 ar  
    28    12    21 ar  
    29    12    37 1   
    30    13    14 ar  
    31    14    15 1   
    32    14    20 ar  
    33    15    16 1   
    34    15    19 1   
    35    15    38 1   
    36    16    17 1   
    37    16    39 1   
    38    16    40 1   
    39    17    18 1   
    40    17    41 1   
    41    17    42 1   
    42    18    19 1   
    43    18    43 1   
    44    18    44 1   
    45    19    45 1   
    46    19    46 1   
    47    20    21 ar  
    48    20    47 1   
    49    21    22 1   
    50    23    24 1   
    51    23    48 1   
    52    23    49 1   
    53    24    25 1   
    54    24    26 1   
    55    25    50 1   
    56    25    51 1   
    57    25    52 1   
    58    26    53 1   
    59    26    54 1   
    60    26    55 1   
    61    28    56 1   
    62    28    57 1   
    63    28    58 1   
@<TRIPOS>SUBSTRUCTURE
     1 2QA         1 TEMP              0 ****  ****    0 ROOT
