@<TRIPOS>MOLECULE
2QB
   20    20     1     0     0
SMALL
No Charge or Current Charge


@<TRIPOS>ATOM
      1 NAH         -3.1170    -1.2540    -1.2290 n1         1 2QB      -0.059000
      2 NAG         -2.8730    -0.3550    -0.5750 n1         1 2QB       0.233000
      3 NAF         -2.4900     0.6540     0.0400 n2         1 2QB      -0.459200
      4 CAE         -1.5800     0.4210     1.1660 c3         1 2QB       0.222100
      5 C5          -0.1700     0.1300     0.6690 ca         1 2QB      -0.320300
      6 C6           0.3550    -1.1730     0.7400 ca         1 2QB       0.150900
      7 N1           1.6040    -1.4580     0.3220 nb         1 2QB      -0.218000
      8 C2           2.3290    -0.4290    -0.1650 ca         1 2QB       0.190300
      9 CAL          3.7340    -0.7440    -0.6450 c3         1 2QB      -0.137400
     10 N3           1.9180     0.8510    -0.2780 nb         1 2QB      -0.274000
     11 C4           0.6750     1.1170     0.1410 ca         1 2QB       0.400900
     12 NAA          0.2840     2.4070     0.0020 nv         1 2QB      -1.058900
     13 H2          -1.5550     1.3010     1.8240 h1         1 2QB       0.069700
     14 H3          -1.9310    -0.4170     1.7850 h1         1 2QB       0.069700
     15 H4          -0.2290    -2.0020     1.1370 h4         1 2QB       0.017100
     16 H5           3.7330    -0.9940    -1.7120 hc         1 2QB       0.060367
     17 H6           4.4080     0.1100    -0.5010 hc         1 2QB       0.060367
     18 H7           4.1630    -1.5950    -0.1010 hc         1 2QB       0.060367
     19 H8           0.8610     3.0080    -0.5800 hn         1 2QB       0.496000
     20 H9          -0.7160     2.5890    -0.0350 hn         1 2QB       0.496000
@<TRIPOS>BOND
     1     1     2 3   
     2     2     3 1   
     3     3     4 1   
     4     4     5 1   
     5     4    13 1   
     6     4    14 1   
     7     5     6 ar  
     8     5    11 ar  
     9     6     7 ar  
    10     6    15 1   
    11     7     8 ar  
    12     8     9 1   
    13     8    10 ar  
    14     9    16 1   
    15     9    17 1   
    16     9    18 1   
    17    10    11 ar  
    18    11    12 1   
    19    12    19 1   
    20    12    20 1   
@<TRIPOS>SUBSTRUCTURE
     1 2QB         1 TEMP              0 ****  ****    0 ROOT
