@<TRIPOS>MOLECULE
2QB
   20    20     1     0     0
SMALL
bcc


@<TRIPOS>ATOM
      1 NAH         -2.9040    -0.8340    -1.4980 n1         1 2QB      -0.059000
      2 NAG         -2.6770    -0.1110    -0.6680 n1         1 2QB       0.233000
      3 NAF         -2.5020     0.7290     0.1990 n2         1 2QB      -0.459200
      4 CAE         -1.5370     0.3520     1.2510 c3         1 2QB       0.222100
      5 C5          -0.1690     0.0660     0.7220 ca         1 2QB      -0.450900
      6 C6           0.4270    -1.1640     0.8610 ca         1 2QB       0.479200
      7 N1           1.6610    -1.4510     0.4420 nb         1 2QB      -0.744000
      8 C2           2.3190    -0.4570    -0.1400 ca         1 2QB       0.716300
      9 CAL          3.7030    -0.7380    -0.6360 c3         1 2QB      -0.137400
     10 N3           1.8470     0.7650    -0.3500 nb         1 2QB      -0.800000
     11 C4           0.6100     1.0440     0.0590 ca         1 2QB       0.729200
     12 NAA          0.1510     2.2900    -0.1490 nv         1 2QB      -0.948500
     13 H2          -1.5230     1.2030     1.9310 h1         1 2QB       0.069700
     14 H3          -1.9090    -0.5070     1.8160 h1         1 2QB       0.069700
     15 H4          -0.1160    -1.9680     1.3500 h4         1 2QB       0.017100
     16 H5           3.6860    -0.9080    -1.7140 hc         1 2QB       0.060367
     17 H6           4.3630     0.1080    -0.4530 hc         1 2QB       0.060367
     18 H7           4.1150    -1.6250    -0.1620 hc         1 2QB       0.060367
     19 H8           0.6960     2.8990    -0.7370 hn         1 2QB       0.440800
     20 H9          -0.8370     2.4750    -0.1200 hn         1 2QB       0.440800
@<TRIPOS>BOND
     1     1     2 3   
     2     2     3 1   
     3     3     4 1   
     4     4     5 1   
     5     4    13 1   
     6     4    14 1   
     7     5     6 ar  
     8     5    11 ar  
     9     6     7 ar  
    10     6    15 1   
    11     7     8 ar  
    12     8     9 1   
    13     8    10 ar  
    14     9    16 1   
    15     9    17 1   
    16     9    18 1   
    17    10    11 ar  
    18    11    12 1   
    19    12    19 1   
    20    12    20 1   
@<TRIPOS>SUBSTRUCTURE
     1 2QB         1 TEMP              0 ****  ****    0 ROOT
