@<TRIPOS>MOLECULE
2QC
   22    23     1     0     0
SMALL
No Charge or Current Charge


@<TRIPOS>ATOM
      1 CAE         -0.7060    -1.2070    -0.1710 ca         1 2QC      -0.086000
      2 CAF         -2.1090    -1.1850    -0.2650 ca         1 2QC      -0.107500
      3 CAK         -2.8050     0.0380    -0.2630 ca         1 2QC      -0.072300
      4 CAL         -4.3250     0.0630    -0.3710 c3         1 2QC       0.196100
      5 NAM         -4.9640     0.1310     0.9580 n8         1 2QC      -1.001200
      6 CAJ         -2.0780     1.2380    -0.1580 ca         1 2QC      -0.107500
      7 CAI         -0.6750     1.2180    -0.0650 ca         1 2QC      -0.086000
      8 CAD          0.0330    -0.0050    -0.0890 ca         1 2QC      -0.126500
      9 CAC          1.4990    -0.0480     0.0440 cc         1 2QC       0.297500
     10 NAB          2.1900    -1.1640     0.4460 nc         1 2QC      -0.302000
     11 NAA          3.4850    -0.9480     0.4620 nd         1 2QC      -0.138100
     12 SAG          3.9240     0.5970    -0.0150 ss         1 2QC       0.285100
     13 CAH          2.2610     1.0390    -0.2730 cd         1 2QC      -0.285000
     14 H1          -0.1960    -2.1680    -0.1730 ha         1 2QC       0.121500
     15 H2          -2.6550    -2.1230    -0.3380 ha         1 2QC       0.123000
     16 H3          -4.6400     0.9340    -0.9620 h1         1 2QC       0.037700
     17 H4          -4.6750    -0.8420    -0.8870 h1         1 2QC       0.037700
     18 H5          -5.9810     0.0510     0.8410 hn         1 2QC       0.398500
     19 H6          -4.7120    -0.7130     1.4850 hn         1 2QC       0.398500
     20 H8          -2.6040     2.1900    -0.1410 ha         1 2QC       0.123000
     21 H9          -0.1500     2.1640     0.0360 ha         1 2QC       0.121500
     22 H11          1.9820     2.0180    -0.6360 h4         1 2QC       0.172000
@<TRIPOS>BOND
     1     1     2 ar  
     2     1     8 ar  
     3     1    14 1   
     4     2     3 ar  
     5     2    15 1   
     6     3     4 1   
     7     3     6 ar  
     8     4     5 1   
     9     4    16 1   
    10     4    17 1   
    11     5    18 1   
    12     5    19 1   
    13     6     7 ar  
    14     6    20 1   
    15     7     8 ar  
    16     7    21 1   
    17     8     9 1   
    18     9    10 1   
    19     9    13 2   
    20    10    11 2   
    21    11    12 1   
    22    12    13 1   
    23    13    22 1   
@<TRIPOS>SUBSTRUCTURE
     1 2QC         1 TEMP              0 ****  ****    0 ROOT
