@<TRIPOS>MOLECULE
2QC
   22    23     1     0     0
SMALL
abcg2


@<TRIPOS>ATOM
      1 CAE         -0.6350    -1.2300    -0.4290 ca         1 2QC      -0.086000
      2 CAF         -2.0180    -1.2890    -0.4560 ca         1 2QC      -0.107500
      3 CAK         -2.7960    -0.1720    -0.1590 ca         1 2QC      -0.072300
      4 CAL         -4.3000    -0.2660    -0.2300 c3         1 2QC       0.196100
      5 NAM         -4.9640     0.7990     0.4960 n8         1 2QC      -1.001200
      6 CAJ         -2.1440     1.0090     0.1810 ca         1 2QC      -0.107500
      7 CAI         -0.7590     1.0720     0.2180 ca         1 2QC      -0.086000
      8 CAD          0.0170    -0.0430    -0.0910 ca         1 2QC      -0.126500
      9 CAC          1.4800     0.0210    -0.0610 cc         1 2QC       0.297500
     10 NAB          2.2160    -1.1280    -0.0870 nc         1 2QC      -0.302000
     11 NAA          3.4700    -0.9670    -0.0600 nd         1 2QC      -0.138100
     12 SAG          3.8810     0.6590     0.0000 ss         1 2QC       0.285100
     13 CAH          2.2700     1.1410    -0.0140 cd         1 2QC      -0.285000
     14 H1          -0.0610    -2.1150    -0.6710 ha         1 2QC       0.121500
     15 H2          -2.5010    -2.2240    -0.7180 ha         1 2QC       0.123000
     16 H3          -4.5980    -0.1920    -1.2800 h1         1 2QC       0.037700
     17 H4          -4.5960    -1.2750     0.0900 h1         1 2QC       0.037700
     18 H5          -5.9560     0.7630     0.3050 hn         1 2QC       0.398500
     19 H6          -4.8650     0.6470     1.4920 hn         1 2QC       0.398500
     20 H8          -2.7240     1.8870     0.4300 ha         1 2QC       0.123000
     21 H9          -0.2880     2.0040     0.5060 ha         1 2QC       0.121500
     22 H11          1.9680     2.1760     0.0030 h4         1 2QC       0.172000
@<TRIPOS>BOND
     1     1     2 ar  
     2     1     8 ar  
     3     1    14 1   
     4     2     3 ar  
     5     2    15 1   
     6     3     4 1   
     7     3     6 ar  
     8     4     5 1   
     9     4    16 1   
    10     4    17 1   
    11     5    18 1   
    12     5    19 1   
    13     6     7 ar  
    14     6    20 1   
    15     7     8 ar  
    16     7    21 1   
    17     8     9 1   
    18     9    10 1   
    19     9    13 2   
    20    10    11 2   
    21    11    12 1   
    22    12    13 1   
    23    13    22 1   
@<TRIPOS>SUBSTRUCTURE
     1 2QC         1 TEMP              0 ****  ****    0 ROOT
