@<TRIPOS>MOLECULE
2QD
   30    29     1     0     0
SMALL
No Charge or Current Charge


@<TRIPOS>ATOM
      1 O           -1.2400    31.3380   -13.2870 o          1 2QD      -0.758500
      2 C           -2.3760    31.4660   -13.7230 c          1 2QD       0.686000
      3 OXT         -2.8480    32.5540   -14.0290 o          1 2QD      -0.758500
      4 CA          -3.3190    30.1940   -13.7480 c3         1 2QD       0.014500
      5 N           -4.5930    30.3100   -12.9430 n8         1 2QD      -0.975200
      6 CB          -3.6180    29.7800   -15.2190 c3         1 2QD      -0.021400
      7 CG          -4.2360    28.3590   -15.4100 c3         1 2QD      -0.197700
      8 CD2         -3.3570    27.2600   -14.7650 c          1 2QD       0.727000
      9 OAG         -2.2150    27.1070   -15.1760 o          1 2QD      -0.751500
     10 OAD         -3.8480    26.5600   -13.8910 o          1 2QD      -0.751500
     11 CD1         -4.5100    28.0090   -16.9040 c3         1 2QD      -0.041400
     12 CAH         -5.5720    28.8810   -17.6230 c3         1 2QD      -0.154400
     13 CAN         -6.9540    28.7990   -16.9590 c          1 2QD       0.613100
     14 OAE         -7.6700    27.8090   -17.0430 o          1 2QD      -0.648100
     15 NAK         -7.3530    29.9360   -16.2990 ns         1 2QD      -0.501900
     16 CAA         -8.6300    30.0840   -15.6020 c3         1 2QD       0.106300
     17 H2          -2.7240    29.3880   -13.2960 h1         1 2QD       0.072700
     18 H3          -4.3540    30.5440   -11.9730 hn         1 2QD       0.357500
     19 H4          -5.1040    31.1370   -13.2700 hn         1 2QD       0.357500
     20 H6          -2.6810    29.8270   -15.7880 hc         1 2QD       0.016200
     21 H7          -4.2790    30.5340   -15.6610 hc         1 2QD       0.016200
     22 H8          -5.2010    28.3380   -14.8890 hc         1 2QD       0.051700
     23 H10         -4.8310    26.9620   -16.9630 hc         1 2QD       0.039200
     24 H11         -3.5690    28.0700   -17.4650 hc         1 2QD       0.039200
     25 H12         -5.2230    29.9200   -17.6510 hc         1 2QD       0.032700
     26 H13         -5.6610    28.5120   -18.6520 hc         1 2QD       0.032700
     27 H14         -6.6980    30.7080   -16.2830 hn         1 2QD       0.327500
     28 H15         -8.6880    31.0840   -15.1560 h1         1 2QD       0.024033
     29 H16         -9.4550    29.9560   -16.3140 h1         1 2QD       0.024033
     30 H17         -8.7070    29.3280   -14.8100 h1         1 2QD       0.024033
@<TRIPOS>BOND
     1     1     2 1   
     2     2     3 1   
     3     2     4 1   
     4     4     5 1   
     5     4     6 1   
     6     4    17 1   
     7     5    18 1   
     8     5    19 1   
     9     6     7 1   
    10     6    20 1   
    11     6    21 1   
    12     7     8 1   
    13     7    11 1   
    14     7    22 1   
    15     8     9 1   
    16     8    10 1   
    17    11    12 1   
    18    11    23 1   
    19    11    24 1   
    20    12    13 1   
    21    12    25 1   
    22    12    26 1   
    23    13    14 2   
    24    13    15 1   
    25    15    16 1   
    26    15    27 1   
    27    16    28 1   
    28    16    29 1   
    29    16    30 1   
@<TRIPOS>SUBSTRUCTURE
     1 2QD         1 TEMP              0 ****  ****    0 ROOT
