@<TRIPOS>MOLECULE
2QD
   30    29     1     0     0
SMALL
bcc


@<TRIPOS>ATOM
      1 O           -1.4430    31.3280   -13.9030 o          1 2QD      -0.863800
      2 C           -2.6740    31.4720   -13.7440 c          1 2QD       0.896600
      3 OXT         -3.2810    32.5490   -13.5730 o          1 2QD      -0.863800
      4 CA          -3.5260    30.1780   -13.7990 c3         1 2QD       0.014500
      5 N           -4.8780    30.3160   -13.2690 n8         1 2QD      -0.864800
      6 CB          -3.5840    29.6810   -15.2480 c3         1 2QD      -0.021400
      7 CG          -4.2350    28.3080   -15.4250 c3         1 2QD      -0.197700
      8 CD2         -3.3510    27.2090   -14.7920 c          1 2QD       0.937600
      9 OAG         -2.2270    27.0340   -15.3090 o          1 2QD      -0.856800
     10 OAD         -3.8210    26.5820   -13.8200 o          1 2QD      -0.856800
     11 CD1         -4.4940    27.9840   -16.9000 c3         1 2QD      -0.041400
     12 CAH         -5.4950    28.9160   -17.5930 c3         1 2QD      -0.154400
     13 CAN         -6.8320    28.8980   -16.8870 c          1 2QD       0.680100
     14 OAE         -7.5580    27.9110   -16.8950 o          1 2QD      -0.648100
     15 NAK         -7.1610    30.0210   -16.2270 ns         1 2QD      -0.568900
     16 CAA         -8.3410    30.1230   -15.4050 c3         1 2QD       0.106300
     17 H2          -3.0120    29.4210   -13.1960 h1         1 2QD       0.072700
     18 H3          -4.8180    30.5110   -12.2770 hn         1 2QD       0.302300
     19 H4          -5.2710    31.1640   -13.6640 hn         1 2QD       0.302300
     20 H6          -2.5730    29.6460   -15.6600 hc         1 2QD       0.016200
     21 H7          -4.1200    30.4400   -15.8300 hc         1 2QD       0.016200
     22 H8          -5.1900    28.3130   -14.8930 hc         1 2QD       0.051700
     23 H10         -4.8660    26.9590   -16.9870 hc         1 2QD       0.039200
     24 H11         -3.5530    28.0150   -17.4560 hc         1 2QD       0.039200
     25 H12         -5.0950    29.9290   -17.6620 hc         1 2QD       0.032700
     26 H13         -5.6490    28.5730   -18.6190 hc         1 2QD       0.032700
     27 H14         -6.5070    30.7850   -16.2090 hn         1 2QD       0.327500
     28 H15         -8.3950    31.1300   -15.0020 h1         1 2QD       0.024033
     29 H16         -9.2480    29.9370   -15.9810 h1         1 2QD       0.024033
     30 H17         -8.3180    29.4220   -14.5690 h1         1 2QD       0.024033
@<TRIPOS>BOND
     1     1     2 1   
     2     2     3 1   
     3     2     4 1   
     4     4     5 1   
     5     4     6 1   
     6     4    17 1   
     7     5    18 1   
     8     5    19 1   
     9     6     7 1   
    10     6    20 1   
    11     6    21 1   
    12     7     8 1   
    13     7    11 1   
    14     7    22 1   
    15     8     9 1   
    16     8    10 1   
    17    11    12 1   
    18    11    23 1   
    19    11    24 1   
    20    12    13 1   
    21    12    25 1   
    22    12    26 1   
    23    13    14 2   
    24    13    15 1   
    25    15    16 1   
    26    15    27 1   
    27    16    28 1   
    28    16    29 1   
    29    16    30 1   
@<TRIPOS>SUBSTRUCTURE
     1 2QD         1 TEMP              0 ****  ****    0 ROOT
