@<TRIPOS>MOLECULE
2QE
   29    28     1     0     0
SMALL
bcc


@<TRIPOS>ATOM
      1 O           -4.4710    -1.7180     0.5000 o          1 2QE      -0.866300
      2 C           -3.9700    -0.8250    -0.2120 c          1 2QE       0.931600
      3 OXT         -4.2780    -0.5610    -1.3940 o          1 2QE      -0.866300
      4 CA          -2.8170    -0.0010     0.3900 c3         1 2QE       0.034500
      5 N           -2.8920     0.0340     1.8420 n8         1 2QE      -0.883800
      6 CB          -1.4980    -0.5590    -0.1760 c3         1 2QE      -0.069400
      7 CG          -0.2230     0.0790     0.3840 c3         1 2QE      -0.198700
      8 CD2         -0.2750     1.6070     0.1980 c          1 2QE       0.929600
      9 OAG         -0.0950     2.0340    -0.9620 o          1 2QE      -0.853800
     10 OAD         -0.5120     2.3030     1.2080 o          1 2QE      -0.853800
     11 CD1          1.0040    -0.5450    -0.2770 c3         1 2QE      -0.039400
     12 CAH          2.3030    -0.0050     0.2970 c3         1 2QE      -0.127400
     13 CAN          3.5380    -0.6650    -0.2530 c          1 2QE       0.634100
     14 OAE          3.5550    -1.5290    -1.0940 o          1 2QE      -0.560000
     15 OAK          4.6400    -0.1730     0.3050 os         1 2QE      -0.431900
     16 CAA          5.8930    -0.7010    -0.1280 c3         1 2QE       0.131700
     17 H2          -2.9250     1.0310     0.0370 h1         1 2QE       0.069700
     18 H3          -2.7960    -0.9080     2.2010 hn         1 2QE       0.320300
     19 H4          -2.1040     0.5650     2.1940 hn         1 2QE       0.320300
     20 H6          -1.4580    -1.6380     0.0180 hc         1 2QE       0.025200
     21 H7          -1.5050    -0.4440    -1.2640 hc         1 2QE       0.025200
     22 H8          -0.1680    -0.1410     1.4560 hc         1 2QE       0.013700
     23 H10          0.9640    -1.6300    -0.1400 hc         1 2QE       0.035200
     24 H11          0.9670    -0.3660    -1.3540 hc         1 2QE       0.035200
     25 H12          2.3900     1.0700     0.1090 hc         1 2QE       0.077700
     26 H13          2.3160    -0.1140     1.3860 hc         1 2QE       0.077700
     27 H14          5.9720    -1.7680     0.0810 h1         1 2QE       0.029367
     28 H15          6.0530    -0.5330    -1.1920 h1         1 2QE       0.029367
     29 H16          6.6530    -0.1690     0.4370 h1         1 2QE       0.029367
@<TRIPOS>BOND
     1     1     2 1   
     2     2     3 1   
     3     2     4 1   
     4     4     5 1   
     5     4     6 1   
     6     4    17 1   
     7     5    18 1   
     8     5    19 1   
     9     6     7 1   
    10     6    20 1   
    11     6    21 1   
    12     7     8 1   
    13     7    11 1   
    14     7    22 1   
    15     8     9 1   
    16     8    10 1   
    17    11    12 1   
    18    11    23 1   
    19    11    24 1   
    20    12    13 1   
    21    12    25 1   
    22    12    26 1   
    23    13    14 2   
    24    13    15 1   
    25    15    16 1   
    26    16    27 1   
    27    16    28 1   
    28    16    29 1   
@<TRIPOS>SUBSTRUCTURE
     1 2QE         1 TEMP              0 ****  ****    0 ROOT
