@<TRIPOS>MOLECULE
2QE
   29    28     1     0     0
SMALL
No Charge or Current Charge


@<TRIPOS>ATOM
      1 O           -3.9550    -2.3260     0.3980 o          1 2QE      -0.761000
      2 C           -3.9080    -1.1710    -0.0120 c          1 2QE       0.721000
      3 OXT         -4.7560    -0.7020    -0.7620 o          1 2QE      -0.761000
      4 CA          -2.7630    -0.2130     0.5270 c3         1 2QE       0.034500
      5 N           -2.7080    -0.0060     2.0220 n8         1 2QE      -0.994200
      6 CB          -1.3720    -0.6700    -0.0010 c3         1 2QE      -0.069400
      7 CG          -0.1940     0.3250     0.2430 c3         1 2QE      -0.198700
      8 CD2         -0.4910     1.7300    -0.3430 c          1 2QE       0.719000
      9 OAG         -0.6670     1.8390    -1.5480 o          1 2QE      -0.748500
     10 OAD         -0.5210     2.6800     0.4250 o          1 2QE      -0.748500
     11 CD1          1.1450    -0.2510    -0.2960 c3         1 2QE      -0.039400
     12 CAH          2.3820     0.6260     0.0180 c3         1 2QE      -0.127400
     13 CAN          3.6710    -0.0410    -0.4670 c          1 2QE       0.585100
     14 OAE          4.0900     0.0470    -1.6140 o          1 2QE      -0.511000
     15 OAK          4.2800    -0.7610     0.5280 os         1 2QE      -0.455100
     16 CAA          5.5000    -1.4550     0.2130 c3         1 2QE       0.154900
     17 H2          -2.9720     0.7670     0.0770 h1         1 2QE       0.069700
     18 H3          -2.5730    -0.9190     2.4700 hn         1 2QE       0.375500
     19 H4          -1.8480     0.5080     2.2430 hn         1 2QE       0.375500
     20 H6          -1.1220    -1.6400     0.4480 hc         1 2QE       0.025200
     21 H7          -1.4580    -0.8490    -1.0800 hc         1 2QE       0.025200
     22 H8          -0.0720     0.4320     1.3280 hc         1 2QE       0.013700
     23 H10          1.3050    -1.2460     0.1390 hc         1 2QE       0.035200
     24 H11          1.0720    -0.3930    -1.3820 hc         1 2QE       0.035200
     25 H12          2.2780     1.5970    -0.4780 hc         1 2QE       0.077700
     26 H13          2.4320     0.7500     1.1060 hc         1 2QE       0.077700
     27 H14          5.3350    -2.1920    -0.5830 h1         1 2QE       0.029367
     28 H15          6.2750    -0.7510    -0.1170 h1         1 2QE       0.029367
     29 H16          5.8750    -1.9850     1.0970 h1         1 2QE       0.029367
@<TRIPOS>BOND
     1     1     2 1   
     2     2     3 1   
     3     2     4 1   
     4     4     5 1   
     5     4     6 1   
     6     4    17 1   
     7     5    18 1   
     8     5    19 1   
     9     6     7 1   
    10     6    20 1   
    11     6    21 1   
    12     7     8 1   
    13     7    11 1   
    14     7    22 1   
    15     8     9 1   
    16     8    10 1   
    17    11    12 1   
    18    11    23 1   
    19    11    24 1   
    20    12    13 1   
    21    12    25 1   
    22    12    26 1   
    23    13    14 2   
    24    13    15 1   
    25    15    16 1   
    26    16    27 1   
    27    16    28 1   
    28    16    29 1   
@<TRIPOS>SUBSTRUCTURE
     1 2QE         1 TEMP              0 ****  ****    0 ROOT
