@<TRIPOS>MOLECULE
2QF
   46    49     1     0     0
SMALL
bcc


@<TRIPOS>ATOM
      1 C4          -5.6500     1.0310     0.7840 cc         1 2QF      -0.011000
      2 C5          -4.7350     0.4710    -0.0640 cd         1 2QF      -0.181600
      3 C6          -5.0400    -0.7900    -0.6660 cd         1 2QF      -0.144000
      4 C7          -6.2140    -1.4090    -0.4140 cc         1 2QF      -0.087300
      5 C10         -3.4610     1.2070    -0.3010 c          1 2QF       0.690700
      6 N12         -2.7380     0.8190    -1.3690 ns         1 2QF      -0.571900
      7 C13         -1.4850     1.4200    -1.7500 c3         1 2QF       0.138300
      8 C15          0.7480     0.3890    -2.2600 ca         1 2QF      -0.136000
      9 C17          1.9700    -0.8400    -0.6170 ca         1 2QF      -0.269500
     10 C24          4.4820    -0.0570     1.7180 ca         1 2QF      -0.099000
     11 C26          6.2610     1.5180     1.2310 ca         1 2QF      -0.174000
     12 C28          5.4280     0.0620    -0.5210 ca         1 2QF      -0.099000
     13 C1          -8.9060    -0.3440     1.6510 cd         1 2QF      -0.159000
     14 C2          -7.9860     0.7030     1.8130 cd         1 2QF      -0.175000
     15 C3          -6.8770     0.3950     1.0390 cc         1 2QF      -0.095300
     16 N8          -7.1330    -0.8290     0.4170 na         1 2QF       0.060700
     17 C9          -8.3610    -1.2750     0.7900 cc         1 2QF      -0.185100
     18 O11         -3.1090     2.1190     0.4370 o          1 2QF      -0.605100
     19 C14         -0.2810     0.6040    -1.3480 ca         1 2QF      -0.051300
     20 C16          1.8770    -0.3320    -1.9050 ca         1 2QF      -0.032500
     21 C18          0.9530    -0.6450     0.3090 ca         1 2QF      -0.032500
     22 C19         -0.1670     0.0770    -0.0630 ca         1 2QF      -0.136000
     23 O21          3.0860    -2.5640     1.0160 o          1 2QF      -0.590800
     24 O22          3.9860    -2.3640    -1.3340 o          1 2QF      -0.590800
     25 C23          4.5380    -0.4730     0.3960 ca         1 2QF      -0.205500
     26 C25          5.3550     0.9420     2.1010 ca         1 2QF       0.151900
     27 C27          6.2740     1.0580    -0.0710 ca         1 2QF       0.151900
     28 F29          7.1460     1.5940    -0.9270 f          1 2QF      -0.130400
     29 F30          5.3300     1.3680     3.3650 f          1 2QF      -0.130400
     30 H1          -5.4520     1.9790     1.2650 ha         1 2QF       0.168000
     31 H2          -4.3410    -1.3060    -1.3090 ha         1 2QF       0.140000
     32 H3          -6.4820    -2.3670    -0.8340 h4         1 2QF       0.161000
     33 H4          -3.0970     0.1070    -1.9830 hn         1 2QF       0.318500
     34 H5          -1.4830     1.5650    -2.8300 h1         1 2QF       0.070200
     35 H6          -1.4160     2.4110    -1.3010 h1         1 2QF       0.070200
     36 H7           0.6670     0.7800    -3.2660 ha         1 2QF       0.144000
     37 H9           6.9360     2.2980     1.5600 ha         1 2QF       0.172000
     38 H10          5.4760    -0.2760    -1.5470 ha         1 2QF       0.176000
     39 H11         -9.8770    -0.4240     2.1120 ha         1 2QF       0.155000
     40 H12         -8.1000     1.5880     2.4190 ha         1 2QF       0.160000
     41 H13         -8.7510    -2.2080     0.4180 h4         1 2QF       0.171000
     42 H14          2.6610    -0.4960    -2.6320 ha         1 2QF       0.155000
     43 H15          1.0230    -1.0500     1.3100 ha         1 2QF       0.155000
     44 H16         -0.9540     0.2280     0.6640 ha         1 2QF       0.144000
     45 S20          3.4130    -1.7460    -0.1440 sy         1 2QF       1.164600
     46 H8           3.7940    -0.4890     2.4310 ha         1 2QF       0.176000
@<TRIPOS>BOND
     1     1     2 2   
     2     1    15 1   
     3     1    30 1   
     4     2     3 1   
     5     2     5 1   
     6     3     4 2   
     7     3    31 1   
     8     4    16 1   
     9     4    32 1   
    10     5     6 1   
    11     5    18 2   
    12     6     7 1   
    13     6    33 1   
    14     7    19 1   
    15     7    34 1   
    16     7    35 1   
    17     8    19 ar  
    18     8    20 ar  
    19     8    36 1   
    20     9    20 ar  
    21     9    21 ar  
    22     9    45 1   
    23    10    25 ar  
    24    10    26 ar  
    25    10    46 1   
    26    11    26 ar  
    27    11    27 ar  
    28    11    37 1   
    29    12    25 ar  
    30    12    27 ar  
    31    12    38 1   
    32    13    14 1   
    33    13    17 2   
    34    13    39 1   
    35    14    15 2   
    36    14    40 1   
    37    15    16 1   
    38    16    17 1   
    39    17    41 1   
    40    19    22 ar  
    41    20    42 1   
    42    21    22 ar  
    43    21    43 1   
    44    22    44 1   
    45    23    45 2   
    46    24    45 2   
    47    25    45 1   
    48    26    29 1   
    49    27    28 1   
@<TRIPOS>SUBSTRUCTURE
     1 2QF         1 TEMP              0 ****  ****    0 ROOT
