@<TRIPOS>MOLECULE
2QF
   46    49     1     0     0
SMALL
No Charge or Current Charge


@<TRIPOS>ATOM
      1 C4          -5.7630     0.6570     0.9330 cc         1 2QF       0.007000
      2 C5          -4.8550     0.5820    -0.1090 cd         1 2QF      -0.181600
      3 C6          -5.1910    -0.3000    -1.2320 cd         1 2QF      -0.126000
      4 C7          -6.3620    -1.0630    -1.3150 cc         1 2QF      -0.120000
      5 C10         -3.6080     1.4020    -0.0080 c          1 2QF       0.623700
      6 N12         -2.7600     1.2720    -1.0830 ns         1 2QF      -0.504900
      7 C13         -1.4630     1.9420    -1.2100 c3         1 2QF       0.138300
      8 C15          0.3440     0.2010    -1.6230 ca         1 2QF      -0.118000
      9 C17          1.7760    -0.6040     0.1800 ca         1 2QF      -0.269500
     10 C24          5.0030     0.2810     1.5620 ca         1 2QF      -0.081000
     11 C26          6.8210     1.1000     0.1590 ca         1 2QF      -0.156000
     12 C28          5.2880    -0.5910    -0.6980 ca         1 2QF      -0.081000
     13 C1          -8.9190    -1.1720     1.0890 cd         1 2QF      -0.209000
     14 C2          -8.0030    -0.2530     1.6880 cd         1 2QF      -0.225000
     15 C3          -6.9410    -0.1200     0.8350 cc         1 2QF      -0.146000
     16 N8          -7.2190    -0.9290    -0.2270 na         1 2QF       0.162100
     17 C9          -8.4240    -1.6040    -0.1280 cc         1 2QF      -0.235100
     18 O11         -3.3450     2.1320     0.9390 o          1 2QF      -0.605100
     19 C14         -0.3260     1.0530    -0.7250 ca         1 2QF      -0.051300
     20 C16          1.3910    -0.6230    -1.1760 ca         1 2QF      -0.014500
     21 C18          1.1080     0.2510     1.0820 ca         1 2QF      -0.014500
     22 C19          0.0620     1.0720     0.6280 ca         1 2QF      -0.118000
     23 O21          2.9560    -1.8630     2.1980 o          1 2QF      -0.520000
     24 O22          3.2550    -2.7790    -0.1750 o          1 2QF      -0.520000
     25 C23          4.5800    -0.5840     0.5260 ca         1 2QF      -0.205500
     26 C25          6.1180     1.1140     1.3730 ca         1 2QF       0.187000
     27 C27          6.4020     0.2470    -0.8720 ca         1 2QF       0.187000
     28 F29          7.0740     0.2340    -2.0440 f          1 2QF      -0.165500
     29 F30          6.5180     1.9370     2.3670 f          1 2QF      -0.165500
     30 H1          -5.6030     1.2810     1.8080 ha         1 2QF       0.150000
     31 H2          -4.5050    -0.3850    -2.0670 ha         1 2QF       0.122000
     32 H3          -6.6460    -1.7230    -2.1240 h4         1 2QF       0.143000
     33 H4          -3.0510     0.6440    -1.8190 hn         1 2QF       0.318500
     34 H5          -1.3030     2.2000    -2.2650 h1         1 2QF       0.070200
     35 H6          -1.4710     2.8810    -0.6420 h1         1 2QF       0.070200
     36 H7           0.0530     0.1750    -2.6710 ha         1 2QF       0.126000
     37 H9           7.6820     1.7470     0.0180 ha         1 2QF       0.154000
     38 H10          4.9820    -1.2410    -1.5150 ha         1 2QF       0.158000
     39 H11         -9.8680    -1.4880     1.5240 ha         1 2QF       0.205000
     40 H12         -8.1240     0.2510     2.6470 ha         1 2QF       0.210000
     41 H13         -8.8030    -2.2880    -0.8810 h4         1 2QF       0.221000
     42 H14          1.8990    -1.2720    -1.8890 ha         1 2QF       0.137000
     43 H15          1.3940     0.2840     2.1320 ha         1 2QF       0.137000
     44 H16         -0.4500     1.7240     1.3320 ha         1 2QF       0.126000
     45 S20          3.1330    -1.6470     0.7550 sy         1 2QF       1.023000
     46 H8           4.4730     0.3140     2.5120 ha         1 2QF       0.158000
@<TRIPOS>BOND
     1     1     2 2   
     2     1    15 1   
     3     1    30 1   
     4     2     3 1   
     5     2     5 1   
     6     3     4 2   
     7     3    31 1   
     8     4    16 1   
     9     4    32 1   
    10     5     6 1   
    11     5    18 2   
    12     6     7 1   
    13     6    33 1   
    14     7    19 1   
    15     7    34 1   
    16     7    35 1   
    17     8    19 ar  
    18     8    20 ar  
    19     8    36 1   
    20     9    20 ar  
    21     9    21 ar  
    22     9    45 1   
    23    10    25 ar  
    24    10    26 ar  
    25    10    46 1   
    26    11    26 ar  
    27    11    27 ar  
    28    11    37 1   
    29    12    25 ar  
    30    12    27 ar  
    31    12    38 1   
    32    13    14 1   
    33    13    17 2   
    34    13    39 1   
    35    14    15 2   
    36    14    40 1   
    37    15    16 1   
    38    16    17 1   
    39    17    41 1   
    40    19    22 ar  
    41    20    42 1   
    42    21    22 ar  
    43    21    43 1   
    44    22    44 1   
    45    23    45 2   
    46    24    45 2   
    47    25    45 1   
    48    26    29 1   
    49    27    28 1   
@<TRIPOS>SUBSTRUCTURE
     1 2QF         1 TEMP              0 ****  ****    0 ROOT
