@<TRIPOS>MOLECULE
2QG
   48    49     1     0     0
SMALL
No Charge or Current Charge


@<TRIPOS>ATOM
      1 C1           6.9650     1.3710    -0.7090 ca         1 2QG      -0.167500
      2 C2           8.2940     0.9660    -0.4860 ca         1 2QG      -0.064500
      3 C3           8.5550    -0.2650     0.1370 ca         1 2QG       0.080000
      4 C4           7.4910    -1.0920     0.5370 ca         1 2QG      -0.064500
      5 C5           6.1610    -0.6870     0.3150 ca         1 2QG      -0.167500
      6 C6           5.8950     0.5510    -0.3120 ca         1 2QG       0.150100
      7 C8           3.4520     0.2390    -0.1900 c3         1 2QG       0.165600
      8 C9           2.2110     1.0480    -0.6150 c3         1 2QG      -0.082400
      9 C10          0.8830     0.3350    -0.2750 c3         1 2QG      -0.074400
     10 C11         -0.3630     1.1440    -0.7000 c3         1 2QG      -0.073400
     11 C12         -1.6900     0.4310    -0.3600 c3         1 2QG      -0.093400
     12 C13         -2.9330     1.2400    -0.7840 c3         1 2QG       0.144800
     13 C15         -5.1540     0.9690     0.1750 c2         1 2QG       0.881100
     14 C17         -5.4820     2.9700     1.3400 c1         1 2QG       0.437800
     15 C20         -6.5910    -1.0440     0.0460 ca         1 2QG       0.356000
     16 C21         -5.7360    -2.0900     0.4030 ca         1 2QG      -0.212500
     17 O7           4.6140     1.0010    -0.5570 os         1 2QG      -0.347100
     18 N14         -4.1500     0.4870    -0.4380 n2         1 2QG      -0.696900
     19 N16         -5.4470     2.2720     0.2150 nu         1 2QG      -0.781000
     20 N18         -5.5130     3.6240     2.2980 n1         1 2QG      -0.475000
     21 N19         -6.2870     0.2740     0.3470 nu         1 2QG      -0.924200
     22 C22         -6.1030    -3.4030     0.0890 ca         1 2QG       0.359400
     23 N23         -7.2580    -3.7110    -0.5410 nb         1 2QG      -0.682000
     24 C24         -8.0850    -2.6940    -0.8730 ca         1 2QG       0.359400
     25 C25         -7.7910    -1.3530    -0.5950 ca         1 2QG      -0.212500
     26 Cl1         10.2150    -0.7740     0.4160 cl         1 2QG      -0.206000
     27 H1           6.7620     2.3240    -1.1910 ha         1 2QG       0.126000
     28 H2           9.1180     1.6040    -0.7950 ha         1 2QG       0.128500
     29 H3           7.6980    -2.0440     1.0190 ha         1 2QG       0.128500
     30 H4           5.3570    -1.3440     0.6330 ha         1 2QG       0.126000
     31 H5           3.4250     0.0690     0.8940 h1         1 2QG       0.036200
     32 H6           3.4480    -0.7330    -0.7010 h1         1 2QG       0.036200
     33 H7           2.2350     2.0250    -0.1180 hc         1 2QG       0.056700
     34 H8           2.2570     1.2320    -1.6950 hc         1 2QG       0.056700
     35 H9           0.8630    -0.6440    -0.7700 hc         1 2QG       0.041700
     36 H10          0.8400     0.1480     0.8050 hc         1 2QG       0.041700
     37 H11         -0.3430     2.1230    -0.2050 hc         1 2QG       0.041200
     38 H12         -0.3200     1.3300    -1.7810 hc         1 2QG       0.041200
     39 H13         -1.7120    -0.5470    -0.8560 hc         1 2QG       0.049700
     40 H14         -1.7340     0.2460     0.7200 hc         1 2QG       0.049700
     41 H15         -2.8940     2.2210    -0.2900 h1         1 2QG       0.041700
     42 H16         -2.8880     1.4100    -1.8680 h1         1 2QG       0.041700
     43 H17         -4.8000    -1.8970     0.9170 ha         1 2QG       0.136500
     44 H18         -5.0320     2.7420    -0.5770 hn         1 2QG       0.528000
     45 H19         -7.0730     0.9090     0.3330 hn         1 2QG       0.511000
     46 H20         -5.4550    -4.2390     0.3520 h4         1 2QG       0.018600
     47 H21         -9.0120    -2.9660    -1.3770 h4         1 2QG       0.018600
     48 H22         -8.4900    -0.5760    -0.8830 ha         1 2QG       0.136500
@<TRIPOS>BOND
     1     1     2 ar  
     2     1     6 ar  
     3     1    27 1   
     4     2     3 ar  
     5     2    28 1   
     6     3     4 ar  
     7     3    26 1   
     8     4     5 ar  
     9     4    29 1   
    10     5     6 ar  
    11     5    30 1   
    12     6    17 1   
    13     7     8 1   
    14     7    17 1   
    15     7    31 1   
    16     7    32 1   
    17     8     9 1   
    18     8    33 1   
    19     8    34 1   
    20     9    10 1   
    21     9    35 1   
    22     9    36 1   
    23    10    11 1   
    24    10    37 1   
    25    10    38 1   
    26    11    12 1   
    27    11    39 1   
    28    11    40 1   
    29    12    18 1   
    30    12    41 1   
    31    12    42 1   
    32    13    18 2   
    33    13    19 1   
    34    13    21 1   
    35    14    19 1   
    36    14    20 3   
    37    15    16 ar  
    38    15    21 1   
    39    15    25 ar  
    40    16    22 ar  
    41    16    43 1   
    42    19    44 1   
    43    21    45 1   
    44    22    23 ar  
    45    22    46 1   
    46    23    24 ar  
    47    24    25 ar  
    48    24    47 1   
    49    25    48 1   
@<TRIPOS>SUBSTRUCTURE
     1 2QG         1 TEMP              0 ****  ****    0 ROOT
