@<TRIPOS>MOLECULE
2QG
   48    49     1     0     0
SMALL
bcc


@<TRIPOS>ATOM
      1 C1           6.7900     1.1710    -0.6900 ca         1 2QG      -0.185500
      2 C2           8.0280     0.8630    -0.1590 ca         1 2QG      -0.082500
      3 C3           8.1260    -0.0940     0.8420 ca         1 2QG      -0.011600
      4 C4           6.9950    -0.7390     1.3080 ca         1 2QG      -0.082500
      5 C5           5.7490    -0.4300     0.7750 ca         1 2QG      -0.185500
      6 C6           5.6380     0.5300    -0.2290 ca         1 2QG       0.150100
      7 C8           3.2670     0.3280    -0.3320 c3         1 2QG       0.142400
      8 C9           2.1180     0.9590    -1.0890 c3         1 2QG      -0.082400
      9 C10          0.7750     0.4160    -0.6150 c3         1 2QG      -0.074400
     10 C11         -0.4040     1.0520    -1.3390 c3         1 2QG      -0.073400
     11 C12         -1.7440     0.5170    -0.8550 c3         1 2QG      -0.093400
     12 C13         -2.9250     1.1560    -1.5820 c3         1 2QG       0.144800
     13 C15         -4.7970     0.9590    -0.1490 c2         1 2QG       0.881100
     14 C17         -4.8090     2.2950     1.8610 c1         1 2QG       0.348600
     15 C20         -6.3260    -0.9730     0.1160 ca         1 2QG       0.217600
     16 C21         -5.6170    -1.9330    -0.6090 ca         1 2QG      -0.295800
     17 O7           4.4800     0.8980    -0.8030 os         1 2QG      -0.323900
     18 N14         -4.1790     0.5690    -1.1740 n2         1 2QG      -0.696900
     19 N16         -4.4540     2.1000     0.6040 nu         1 2QG      -0.725800
     20 N18         -5.1230     2.4720     2.9580 n1         1 2QG      -0.385800
     21 N19         -5.9050     0.3200     0.3560 nu         1 2QG      -0.730600
     22 C22         -6.1590    -3.2030    -0.7220 ca         1 2QG       0.424700
     23 N23         -7.3170    -3.5850    -0.1980 nb         1 2QG      -0.682000
     24 C24         -7.9860    -2.6630     0.4880 ca         1 2QG       0.424700
     25 C25         -7.5470    -1.3680     0.6740 ca         1 2QG      -0.295800
     26 CL1          9.6800    -0.4820     1.5120 cl         1 2QG      -0.114400
     27 H1           6.7100     1.9170    -1.4700 ha         1 2QG       0.144000
     28 H2           8.9110     1.3710    -0.5240 ha         1 2QG       0.146500
     29 H3           7.0690    -1.4850     2.0870 ha         1 2QG       0.146500
     30 H4           4.8850    -0.9540     1.1580 ha         1 2QG       0.144000
     31 H5           3.1570     0.5110     0.7430 h1         1 2QG       0.036200
     32 H6           3.2730    -0.7580    -0.4830 h1         1 2QG       0.036200
     33 H7           2.1440     2.0440    -0.9480 hc         1 2QG       0.056700
     34 H8           2.2350     0.7720    -2.1600 hc         1 2QG       0.056700
     35 H9           0.7450    -0.6690    -0.7570 hc         1 2QG       0.041700
     36 H10          0.6720     0.5850     0.4620 hc         1 2QG       0.041700
     37 H11         -0.3700     2.1380    -1.2000 hc         1 2QG       0.041200
     38 H12         -0.3080     0.8790    -2.4160 hc         1 2QG       0.041200
     39 H13         -1.7870    -0.5660    -0.9990 hc         1 2QG       0.049700
     40 H14         -1.8410     0.6910     0.2220 hc         1 2QG       0.049700
     41 H15         -2.8820     2.2470    -1.4580 h1         1 2QG       0.041700
     42 H16         -2.8160     0.9860    -2.6550 h1         1 2QG       0.041700
     43 H17         -4.6760    -1.7050    -1.0820 ha         1 2QG       0.154500
     44 H18         -3.8300     2.7800     0.1900 hn         1 2QG       0.472800
     45 H19         -6.5500     0.8780     0.8960 hn         1 2QG       0.455800
     46 H20         -5.6120    -3.9530    -1.2820 h4         1 2QG       0.018600
     47 H21         -8.9330    -2.9680     0.9210 h4         1 2QG       0.018600
     48 H22         -8.1430    -0.6750     1.2540 ha         1 2QG       0.154500
@<TRIPOS>BOND
     1     1     2 ar  
     2     1     6 ar  
     3     1    27 1   
     4     2     3 ar  
     5     2    28 1   
     6     3     4 ar  
     7     3    26 1   
     8     4     5 ar  
     9     4    29 1   
    10     5     6 ar  
    11     5    30 1   
    12     6    17 1   
    13     7     8 1   
    14     7    17 1   
    15     7    31 1   
    16     7    32 1   
    17     8     9 1   
    18     8    33 1   
    19     8    34 1   
    20     9    10 1   
    21     9    35 1   
    22     9    36 1   
    23    10    11 1   
    24    10    37 1   
    25    10    38 1   
    26    11    12 1   
    27    11    39 1   
    28    11    40 1   
    29    12    18 1   
    30    12    41 1   
    31    12    42 1   
    32    13    18 2   
    33    13    19 1   
    34    13    21 1   
    35    14    19 1   
    36    14    20 3   
    37    15    16 ar  
    38    15    21 1   
    39    15    25 ar  
    40    16    22 ar  
    41    16    43 1   
    42    19    44 1   
    43    21    45 1   
    44    22    23 ar  
    45    22    46 1   
    46    23    24 ar  
    47    24    25 ar  
    48    24    47 1   
    49    25    48 1   
@<TRIPOS>SUBSTRUCTURE
     1 2QG         1 TEMP              0 ****  ****    0 ROOT
