@<TRIPOS>MOLECULE
2QH
   56    60     1     0     0
SMALL
bcc


@<TRIPOS>ATOM
      1 C1          -0.2800     5.0550    -0.5820 c3         1 2QH      -0.032800
      2 C2          -1.0610     3.8300    -0.2110 ca         1 2QH      -0.111300
      3 C3          -0.5200     2.5660    -0.3480 ca         1 2QH      -0.064000
      4 C4          -1.2210     1.4050    -0.0090 ca         1 2QH      -0.110300
      5 C5          -2.5090     1.5410     0.4750 ca         1 2QH      -0.073000
      6 C6          -3.0860     2.8010     0.6240 ca         1 2QH      -0.221000
      7 C7          -2.3730     3.9420     0.2850 ca         1 2QH       0.145100
      8 O8          -2.8530     5.1960     0.3960 os         1 2QH      -0.316900
      9 C9          -4.1680     5.3750     0.8780 c3         1 2QH       0.124700
     10 C10         -0.5390     0.0660    -0.2620 c5         1 2QH       0.225500
     11 C11         -1.4150    -1.1150     0.1490 c2         1 2QH       0.605200
     12 N12         -1.7550    -1.4580     1.3160 n2         1 2QH      -0.609900
     13 C13         -2.6070    -2.6240     1.4370 c6         1 2QH       0.065800
     14 C14         -3.4320    -2.8830     0.1920 c6         1 2QH       0.387600
     15 C15         -2.5920    -2.9030    -1.0720 c6         1 2QH       0.182800
     16 N16         -1.7630    -1.7250    -1.0280 nh         1 2QH      -0.793600
     17 C17         -1.0930    -1.0910    -2.0620 c2         1 2QH       0.825100
     18 N18         -0.3660    -0.0990    -1.6980 n2         1 2QH      -0.691900
     19 N19         -1.2890    -1.5080    -3.3280 nv         1 2QH      -0.910800
     20 F20         -4.1080    -4.0570     0.3010 f          1 2QH      -0.228800
     21 F21         -4.3790    -1.9030     0.0720 f          1 2QH      -0.228800
     22 C22          0.7850    -0.0150     0.4800 ca         1 2QH      -0.089300
     23 C23          0.8460     0.3160     1.8320 ca         1 2QH      -0.061000
     24 C24          2.0370     0.2120     2.5290 ca         1 2QH      -0.178000
     25 C25          3.1680    -0.2170     1.8620 ca         1 2QH       0.151900
     26 C26          3.1590    -0.5440     0.5150 cp         1 2QH      -0.088000
     27 C27          1.9400    -0.4390    -0.1590 ca         1 2QH      -0.072000
     28 C28          4.3680    -1.0060    -0.1910 cp         1 2QH      -0.143300
     29 C29          5.5840    -0.3290    -0.1270 ca         1 2QH      -0.070000
     30 C30          6.6630    -0.8120    -0.8480 ca         1 2QH      -0.247300
     31 C31          6.4940    -1.9570    -1.6130 ca         1 2QH       0.402200
     32 N32          5.3440    -2.6160    -1.6830 nb         1 2QH      -0.670000
     33 C33          4.3170    -2.1490    -0.9880 ca         1 2QH       0.410200
     34 F34          4.3130    -0.3330     2.5540 f          1 2QH      -0.142900
     35 H1          -0.1400     5.7220     0.2710 hc         1 2QH       0.042033
     36 H2           0.7070     4.7820    -0.9540 hc         1 2QH       0.042033
     37 H3          -0.7790     5.6350    -1.3600 hc         1 2QH       0.042033
     38 H4           0.4900     2.4780    -0.7330 ha         1 2QH       0.143000
     39 H5          -3.0960     0.6760     0.7520 ha         1 2QH       0.139000
     40 H6          -4.0950     2.8650     1.0080 ha         1 2QH       0.136000
     41 H7          -4.2890     4.9900     1.8930 h1         1 2QH       0.040033
     42 H8          -4.3520     6.4470     0.8860 h1         1 2QH       0.040033
     43 H9          -4.9080     4.8960     0.2310 h1         1 2QH       0.040033
     44 H10         -1.9980    -3.5090     1.6450 h1         1 2QH       0.087200
     45 H11         -3.2770    -2.4960     2.2900 h1         1 2QH       0.087200
     46 H12         -1.9910    -3.8150    -1.0970 h1         1 2QH       0.073200
     47 H13         -3.2370    -2.8870    -1.9530 h1         1 2QH       0.073200
     48 H14         -1.5560    -2.4640    -3.4950 hn         1 2QH       0.430300
     49 H15         -0.6590    -1.1310    -4.0170 hn         1 2QH       0.430300
     50 H16         -0.0390     0.6630     2.3480 ha         1 2QH       0.155000
     51 H17          2.0900     0.4570     3.5820 ha         1 2QH       0.153000
     52 H18          1.9010    -0.6730    -1.2140 ha         1 2QH       0.151000
     53 H19          5.6840     0.5760     0.4570 ha         1 2QH       0.144000
     54 H20          7.6190    -0.3070    -0.8240 ha         1 2QH       0.143000
     55 H21          7.3200    -2.3560    -2.1910 h4         1 2QH       0.018100
     56 H22          3.3930    -2.7160    -1.0530 h4         1 2QH       0.017100
@<TRIPOS>BOND
     1     1     2 1   
     2     1    35 1   
     3     1    36 1   
     4     1    37 1   
     5     2     3 ar  
     6     2     7 ar  
     7     3     4 ar  
     8     3    38 1   
     9     4     5 ar  
    10     4    10 1   
    11     5     6 ar  
    12     5    39 1   
    13     6     7 ar  
    14     6    40 1   
    15     7     8 1   
    16     8     9 1   
    17     9    41 1   
    18     9    42 1   
    19     9    43 1   
    20    10    11 1   
    21    10    18 1   
    22    10    22 1   
    23    11    12 2   
    24    11    16 1   
    25    12    13 1   
    26    13    14 1   
    27    13    44 1   
    28    13    45 1   
    29    14    15 1   
    30    14    20 1   
    31    14    21 1   
    32    15    16 1   
    33    15    46 1   
    34    15    47 1   
    35    16    17 1   
    36    17    18 2   
    37    17    19 1   
    38    19    48 1   
    39    19    49 1   
    40    22    23 ar  
    41    22    27 ar  
    42    23    24 ar  
    43    23    50 1   
    44    24    25 ar  
    45    24    51 1   
    46    25    26 ar  
    47    25    34 1   
    48    26    27 ar  
    49    26    28 1   
    50    27    52 1   
    51    28    29 ar  
    52    28    33 ar  
    53    29    30 ar  
    54    29    53 1   
    55    30    31 ar  
    56    30    54 1   
    57    31    32 ar  
    58    31    55 1   
    59    32    33 ar  
    60    33    56 1   
@<TRIPOS>SUBSTRUCTURE
     1 2QH         1 TEMP              0 ****  ****    0 ROOT
