@<TRIPOS>MOLECULE
2QH
   56    60     1     0     0
SMALL
No Charge or Current Charge


@<TRIPOS>ATOM
      1 C1          -0.2490     5.2240    -0.1610 c3         1 2QH      -0.032800
      2 C2          -1.0950     3.9610    -0.0340 ca         1 2QH      -0.111300
      3 C3          -0.5050     2.7010    -0.2490 ca         1 2QH      -0.046000
      4 C4          -1.2510     1.5080    -0.1320 ca         1 2QH      -0.110300
      5 C5          -2.6270     1.6090     0.1790 ca         1 2QH      -0.055000
      6 C6          -3.2250     2.8620     0.3940 ca         1 2QH      -0.203000
      7 C7          -2.4640     4.0440     0.2930 ca         1 2QH       0.145100
      8 O8          -3.0200     5.2940     0.4990 os         1 2QH      -0.340100
      9 C9          -4.4070     5.4750     0.8360 c3         1 2QH       0.147900
     10 C10         -0.5460     0.1550    -0.3820 c5         1 2QH       0.225500
     11 C11         -1.4200    -1.0240     0.1150 c2         1 2QH       0.605200
     12 N12         -1.6340    -1.4860     1.3050 n2         1 2QH      -0.609900
     13 C13         -2.5000    -2.6780     1.5100 c6         1 2QH       0.065800
     14 C14         -3.3630    -3.0580     0.2770 c6         1 2QH       0.145000
     15 C15         -2.5700    -2.9140    -1.0440 c6         1 2QH       0.182800
     16 N16         -1.8120    -1.6320    -1.0400 nh         1 2QH      -0.793600
     17 C17         -1.2060    -1.0570    -2.0930 c2         1 2QH       0.825100
     18 N18         -0.4440    -0.0690    -1.8710 n2         1 2QH      -0.691900
     19 N19         -1.3830    -1.6240    -3.2810 nv         1 2QH      -1.021200
     20 F20         -3.8260    -4.3790     0.4130 f          1 2QH      -0.107500
     21 F21         -4.5050    -2.2350     0.2340 f          1 2QH      -0.107500
     22 C22          0.8060     0.0650     0.3640 ca         1 2QH      -0.089300
     23 C23          0.8990     0.5040     1.7030 ca         1 2QH      -0.043000
     24 C24          2.1140     0.4260     2.4000 ca         1 2QH      -0.160000
     25 C25          3.2560    -0.0920     1.7740 ca         1 2QH       0.187000
     26 C26          3.2060    -0.5460     0.4310 cp         1 2QH      -0.088000
     27 C27          1.9660    -0.4620    -0.2510 ca         1 2QH      -0.054000
     28 C28          4.4060    -1.1110    -0.2640 cp         1 2QH      -0.078000
     29 C29          5.6830    -0.5080    -0.1640 ca         1 2QH      -0.052000
     30 C30          6.7670    -1.0830    -0.8470 ca         1 2QH      -0.164000
     31 C31          6.5590    -2.2390    -1.6160 ca         1 2QH       0.336900
     32 N32          5.3500    -2.8320    -1.7350 nb         1 2QH      -0.670000
     33 C33          4.3070    -2.2740    -1.0750 ca         1 2QH       0.344900
     34 F34          4.3970    -0.1800     2.4940 f          1 2QH      -0.178000
     35 H1          -0.2440     5.7880     0.7800 hc         1 2QH       0.042033
     36 H2           0.7930     4.9960    -0.4140 hc         1 2QH       0.042033
     37 H3          -0.6420     5.8830    -0.9450 hc         1 2QH       0.042033
     38 H4           0.5490     2.6450    -0.5120 ha         1 2QH       0.125000
     39 H5          -3.2540     0.7230     0.2540 ha         1 2QH       0.121000
     40 H6          -4.2830     2.8910     0.6340 ha         1 2QH       0.118000
     41 H7          -4.6480     4.9690     1.7790 h1         1 2QH       0.040033
     42 H8          -4.6320     6.5420     0.9550 h1         1 2QH       0.040033
     43 H9          -5.0550     5.0780     0.0450 h1         1 2QH       0.040033
     44 H10         -1.8590    -3.5300     1.7820 h1         1 2QH       0.087200
     45 H11         -3.1660    -2.4890     2.3640 h1         1 2QH       0.087200
     46 H12         -1.8740    -3.7620    -1.1320 h1         1 2QH       0.073200
     47 H13         -3.2700    -2.9620    -1.8910 h1         1 2QH       0.073200
     48 H14         -1.3910    -2.6290    -3.2170 hn         1 2QH       0.485500
     49 H15         -0.7210    -1.2620    -3.9540 hn         1 2QH       0.485500
     50 H16          0.0230     0.9020     2.2100 ha         1 2QH       0.137000
     51 H17          2.1710     0.7610     3.4330 ha         1 2QH       0.135000
     52 H18          1.9200    -0.8060    -1.2810 ha         1 2QH       0.133000
     53 H19          5.8280     0.3960     0.4230 ha         1 2QH       0.126000
     54 H20          7.7580    -0.6410    -0.7880 ha         1 2QH       0.125000
     55 H21          7.3840    -2.7030    -2.1560 h4         1 2QH       0.018100
     56 H22          3.3500    -2.7810    -1.1890 h4         1 2QH       0.017100
@<TRIPOS>BOND
     1     1     2 1   
     2     1    35 1   
     3     1    36 1   
     4     1    37 1   
     5     2     3 ar  
     6     2     7 ar  
     7     3     4 ar  
     8     3    38 1   
     9     4     5 ar  
    10     4    10 1   
    11     5     6 ar  
    12     5    39 1   
    13     6     7 ar  
    14     6    40 1   
    15     7     8 1   
    16     8     9 1   
    17     9    41 1   
    18     9    42 1   
    19     9    43 1   
    20    10    11 1   
    21    10    18 1   
    22    10    22 1   
    23    11    12 2   
    24    11    16 1   
    25    12    13 1   
    26    13    14 1   
    27    13    44 1   
    28    13    45 1   
    29    14    15 1   
    30    14    20 1   
    31    14    21 1   
    32    15    16 1   
    33    15    46 1   
    34    15    47 1   
    35    16    17 1   
    36    17    18 2   
    37    17    19 1   
    38    19    48 1   
    39    19    49 1   
    40    22    23 ar  
    41    22    27 ar  
    42    23    24 ar  
    43    23    50 1   
    44    24    25 ar  
    45    24    51 1   
    46    25    26 ar  
    47    25    34 1   
    48    26    27 ar  
    49    26    28 1   
    50    27    52 1   
    51    28    29 ar  
    52    28    33 ar  
    53    29    30 ar  
    54    29    53 1   
    55    30    31 ar  
    56    30    54 1   
    57    31    32 ar  
    58    31    55 1   
    59    32    33 ar  
    60    33    56 1   
@<TRIPOS>SUBSTRUCTURE
     1 2QH         1 TEMP              0 ****  ****    0 ROOT
