@<TRIPOS>MOLECULE
2QI
   60    62     1     0     0
SMALL
No Charge or Current Charge


@<TRIPOS>ATOM
      1 C7           0.7070    33.2780    39.2060 c5         1 2QI      -0.045500
      2 C8          -0.0740    34.5490    38.8150 c2         1 2QI      -0.055400
      3 C9          -1.4890    34.3170    38.2880 c6         1 2QI      -0.044200
      4 C1           2.2040    29.9990    37.7750 c3         1 2QI      -0.035700
      5 C5           2.7230    31.9650    39.4470 c5         1 2QI      -0.076400
      6 C6           2.2050    33.4280    39.5800 c5         1 2QI      -0.072400
      7 C4           1.6110    31.1610    38.6590 c5         1 2QI      -0.050700
      8 O3           4.1340    39.6410    39.3830 oh         1 2QI      -0.655000
      9 C2           2.9960    28.9490    38.6290 c3         1 2QI      -0.207400
     10 C            1.1560    29.2880    36.8800 c3         1 2QI      -0.072100
     11 C10         -1.5300    33.2200    37.1920 c6         1 2QI      -0.071400
     12 C11         -0.6970    31.9610    37.5660 c6         1 2QI      -0.063400
     13 C12          0.7760    32.3180    37.9680 c5         1 2QI      -0.033000
     14 C13          1.5100    32.9150    36.7140 c3         1 2QI      -0.076100
     15 C14          0.5120    35.7810    38.9870 ce         1 2QI      -0.218000
     16 C15         -0.0590    37.1330    38.7000 ce         1 2QI      -0.132000
     17 C16          0.6630    38.2860    38.5670 cf         1 2QI      -0.098200
     18 C17         -0.0580    39.6340    38.3550 c6         1 2QI      -0.025200
     19 C18          0.4970    40.7600    39.2650 c6         1 2QI       0.178300
     20 C19          2.0370    40.8440    39.1610 c6         1 2QI      -0.146400
     21 C20          2.7130    39.4920    39.4940 c6         1 2QI       0.214500
     22 C21          2.1290    38.3650    38.6050 cf         1 2QI      -0.089200
     23 C22          2.9120    37.5170    37.8900 c2         1 2QI      -0.277000
     24 O2           0.1020    40.5510    40.6260 oh         1 2QI      -0.651000
     25 H1           0.1730    32.8000    40.0390 hc         1 2QI       0.050700
     26 H2          -1.9270    35.2390    37.8890 hc         1 2QI       0.038200
     27 H3          -2.1280    34.0100    39.1280 hc         1 2QI       0.038200
     28 H4           2.9330    30.4520    37.0910 hc         1 2QI       0.062700
     29 H5           2.8990    31.5200    40.4330 hc         1 2QI       0.048200
     30 H6           3.6870    31.9530    38.9240 hc         1 2QI       0.048200
     31 H7           2.7520    34.0890    38.8980 hc         1 2QI       0.034700
     32 H8           2.3430    33.8240    40.5930 hc         1 2QI       0.034700
     33 H9           0.9660    30.6560    39.3890 hc         1 2QI       0.033700
     34 H11          3.5960    29.5180    39.3460 hc         1 2QI       0.017200
     35 H12          2.2510    28.3050    39.1120 hc         1 2QI       0.017200
     36 H13          0.8460    29.9360    36.0550 hc         1 2QI       0.022700
     37 H14          1.5650    28.3860    36.4160 hc         1 2QI       0.022700
     38 H15          0.2730    28.9990    37.4620 hc         1 2QI       0.022700
     39 H17         -1.1660    33.6400    36.2450 hc         1 2QI       0.032700
     40 H18         -2.5730    32.9300    37.0050 hc         1 2QI       0.032700
     41 H19         -1.1890    31.4400    38.3990 hc         1 2QI       0.043700
     42 H20         -0.7280    31.2690    36.7180 hc         1 2QI       0.043700
     43 H21          2.5910    33.0110    36.8620 hc         1 2QI       0.032367
     44 H22          1.3740    32.2750    35.8350 hc         1 2QI       0.032367
     45 H23          1.1370    33.9110    36.4500 hc         1 2QI       0.032367
     46 H24          1.5170    35.8400    39.3960 ha         1 2QI       0.182000
     47 H25         -1.1450    37.1980    38.6210 ha         1 2QI       0.164000
     48 H26          0.0610    39.9300    37.3040 hc         1 2QI       0.051200
     49 H27         -1.1390    39.5290    38.5190 hc         1 2QI       0.051200
     50 H28          0.0760    41.7140    38.9150 h1         1 2QI       0.023700
     51 H29          2.4130    41.6320    39.8280 hc         1 2QI       0.043700
     52 H30          2.3090    41.1480    38.1410 hc         1 2QI       0.043700
     53 H31          2.4660    39.2390    40.5360 h1         1 2QI       0.046700
     54 H32          3.9990    37.5790    37.9130 ha         1 2QI       0.175000
     55 H33          2.4740    36.7480    37.2550 ha         1 2QI       0.175000
     56 H34          0.3500    41.3640    41.1170 ho         1 2QI       0.432000
     57 C3           3.9670    28.1160    37.7670 c          1 2QI       0.716000
     58 H10          4.3840    40.3640    39.9980 ho         1 2QI       0.437000
     59 O1           5.0700    28.5840    37.5290 o          1 2QI      -0.741500
     60 O            3.5960    27.0280    37.3550 o          1 2QI      -0.741500
@<TRIPOS>BOND
     1     1     2 1   
     2     1     6 1   
     3     1    13 1   
     4     1    25 1   
     5     2     3 1   
     6     2    15 2   
     7     3    11 1   
     8     3    26 1   
     9     3    27 1   
    10     4     7 1   
    11     4     9 1   
    12     4    10 1   
    13     4    28 1   
    14     5     6 1   
    15     5     7 1   
    16     5    29 1   
    17     5    30 1   
    18     6    31 1   
    19     6    32 1   
    20     7    13 1   
    21     7    33 1   
    22     8    21 1   
    23     8    58 1   
    24     9    34 1   
    25     9    35 1   
    26     9    57 1   
    27    10    36 1   
    28    10    37 1   
    29    10    38 1   
    30    11    12 1   
    31    11    39 1   
    32    11    40 1   
    33    12    13 1   
    34    12    41 1   
    35    12    42 1   
    36    13    14 1   
    37    14    43 1   
    38    14    44 1   
    39    14    45 1   
    40    15    16 1   
    41    15    46 1   
    42    16    17 2   
    43    16    47 1   
    44    17    18 1   
    45    17    22 1   
    46    18    19 1   
    47    18    48 1   
    48    18    49 1   
    49    19    20 1   
    50    19    24 1   
    51    19    50 1   
    52    20    21 1   
    53    20    51 1   
    54    20    52 1   
    55    21    22 1   
    56    21    53 1   
    57    22    23 2   
    58    23    54 1   
    59    23    55 1   
    60    24    56 1   
    61    57    59 1   
    62    57    60 1   
@<TRIPOS>SUBSTRUCTURE
     1 2QI         1 TEMP              0 ****  ****    0 ROOT
