@<TRIPOS>MOLECULE
2QI
   60    62     1     0     0
SMALL
bcc


@<TRIPOS>ATOM
      1 C7           0.7540    33.3400    39.1540 c5         1 2QI      -0.045500
      2 C8           0.0630    34.6210    38.8060 c2         1 2QI      -0.055400
      3 C9          -1.3590    34.3770    38.3840 c6         1 2QI      -0.044200
      4 C1           2.1770    30.0950    37.7130 c3         1 2QI      -0.035700
      5 C5           2.6420    31.8870    39.4820 c5         1 2QI      -0.076400
      6 C6           2.1770    33.3420    39.6860 c5         1 2QI      -0.072400
      7 C4           1.5690    31.1750    38.6170 c5         1 2QI      -0.050700
      8 O3           4.0440    39.6120    39.5030 oh         1 2QI      -0.592800
      9 C2           2.8990    29.0440    38.5590 c3         1 2QI      -0.207400
     10 C            1.1410    29.4120    36.8250 c3         1 2QI      -0.072100
     11 C10         -1.4440    33.3300    37.2670 c6         1 2QI      -0.071400
     12 C11         -0.6610    32.0520    37.5740 c6         1 2QI      -0.063400
     13 C12          0.7900    32.3450    37.9650 c5         1 2QI      -0.033000
     14 C13          1.5650    32.9210    36.7780 c3         1 2QI      -0.076100
     15 C14          0.6750    35.8150    38.8530 ce         1 2QI      -0.168000
     16 C15          0.0840    37.1050    38.5490 ce         1 2QI      -0.082000
     17 C16          0.7430    38.2720    38.4440 cf         1 2QI      -0.098200
     18 C17          0.0160    39.5680    38.2070 c6         1 2QI      -0.025200
     19 C18          0.4090    40.6260    39.2310 c6         1 2QI       0.155100
     20 C19          1.9270    40.7840    39.2600 c6         1 2QI      -0.146400
     21 C20          2.6470    39.4640    39.5460 c6         1 2QI       0.191300
     22 C21          2.2100    38.4140    38.5560 cf         1 2QI      -0.089200
     23 C22          3.0580    37.7090    37.8090 c2         1 2QI      -0.177000
     24 O2          -0.1040    40.2200    40.4840 oh         1 2QI      -0.588800
     25 H1           0.1250    32.8500    39.9150 hc         1 2QI       0.050700
     26 H2          -1.8620    35.2910    38.0670 hc         1 2QI       0.038200
     27 H3          -1.9140    34.0020    39.2530 hc         1 2QI       0.038200
     28 H4           2.9210    30.5720    37.0680 hc         1 2QI       0.062700
     29 H5           2.7760    31.3750    40.4360 hc         1 2QI       0.048200
     30 H6           3.6130    31.8610    38.9810 hc         1 2QI       0.048200
     31 H7           2.8100    34.0300    39.1200 hc         1 2QI       0.034700
     32 H8           2.2260    33.6600    40.7280 hc         1 2QI       0.034700
     33 H9           0.8610    30.6760    39.2940 hc         1 2QI       0.033700
     34 H11          3.5690    29.5370    39.2730 hc         1 2QI       0.017200
     35 H12          2.1670    28.5110    39.1760 hc         1 2QI       0.017200
     36 H13          0.7260    30.0840    36.0740 hc         1 2QI       0.022700
     37 H14          1.5840    28.5730    36.2870 hc         1 2QI       0.022700
     38 H15          0.3080    29.0270    37.4190 hc         1 2QI       0.022700
     39 H17         -1.0820    33.7730    36.3350 hc         1 2QI       0.032700
     40 H18         -2.4930    33.0800    37.0910 hc         1 2QI       0.032700
     41 H19         -1.1450    31.5190    38.4010 hc         1 2QI       0.043700
     42 H20         -0.7180    31.3910    36.7070 hc         1 2QI       0.043700
     43 H21          2.6220    33.0680    37.0040 hc         1 2QI       0.032367
     44 H22          1.5120    32.2480    35.9200 hc         1 2QI       0.032367
     45 H23          1.1690    33.8860    36.4590 hc         1 2QI       0.032367
     46 H24          1.7150    35.8350    39.1580 ha         1 2QI       0.132000
     47 H25         -0.9940    37.1420    38.4250 ha         1 2QI       0.114000
     48 H26          0.2770    39.9590    37.2170 hc         1 2QI       0.051200
     49 H27         -1.0650    39.4160    38.2140 hc         1 2QI       0.051200
     50 H28         -0.0330    41.5840    38.9270 h1         1 2QI       0.023700
     51 H29          2.2080    41.5290    40.0120 hc         1 2QI       0.043700
     52 H30          2.2600    41.1710    38.2920 hc         1 2QI       0.043700
     53 H31          2.3320    39.1130    40.5410 h1         1 2QI       0.046700
     54 H32          4.1310    37.8270    37.8790 ha         1 2QI       0.125000
     55 H33          2.6920    36.9850    37.0930 ha         1 2QI       0.125000
     56 H34          0.1510    40.8770    41.1410 ho         1 2QI       0.393000
     57 C3           3.7680    28.0210    37.7980 c          1 2QI       0.926600
     58 H10          4.3010    40.2240    40.2000 ho         1 2QI       0.398000
     59 O1           4.2290    28.3590    36.6890 o          1 2QI      -0.846800
     60 O            3.9820    26.9410    38.3890 o          1 2QI      -0.846800
@<TRIPOS>BOND
     1     1     2 1   
     2     1     6 1   
     3     1    13 1   
     4     1    25 1   
     5     2     3 1   
     6     2    15 2   
     7     3    11 1   
     8     3    26 1   
     9     3    27 1   
    10     4     7 1   
    11     4     9 1   
    12     4    10 1   
    13     4    28 1   
    14     5     6 1   
    15     5     7 1   
    16     5    29 1   
    17     5    30 1   
    18     6    31 1   
    19     6    32 1   
    20     7    13 1   
    21     7    33 1   
    22     8    21 1   
    23     8    58 1   
    24     9    34 1   
    25     9    35 1   
    26     9    57 1   
    27    10    36 1   
    28    10    37 1   
    29    10    38 1   
    30    11    12 1   
    31    11    39 1   
    32    11    40 1   
    33    12    13 1   
    34    12    41 1   
    35    12    42 1   
    36    13    14 1   
    37    14    43 1   
    38    14    44 1   
    39    14    45 1   
    40    15    16 1   
    41    15    46 1   
    42    16    17 2   
    43    16    47 1   
    44    17    18 1   
    45    17    22 1   
    46    18    19 1   
    47    18    48 1   
    48    18    49 1   
    49    19    20 1   
    50    19    24 1   
    51    19    50 1   
    52    20    21 1   
    53    20    51 1   
    54    20    52 1   
    55    21    22 1   
    56    21    53 1   
    57    22    23 2   
    58    23    54 1   
    59    23    55 1   
    60    24    56 1   
    61    57    59 1   
    62    57    60 1   
@<TRIPOS>SUBSTRUCTURE
     1 2QI         1 TEMP              0 ****  ****    0 ROOT
