@<TRIPOS>MOLECULE
2QJ
   39    40     1     0     0
SMALL
No Charge or Current Charge


@<TRIPOS>ATOM
      1 C1           6.6990     0.6790     0.3930 c3         1 2QJ      -0.090100
      2 C2           5.4920    -0.2870     0.2350 c3         1 2QJ       0.044000
      3 C3           4.2580     0.5000    -0.3330 c          1 2QJ       0.581100
      4 O4           4.3350     1.2020    -1.3360 o          1 2QJ      -0.536100
      5 N5           3.1020     0.3760     0.4240 ns         1 2QJ      -0.141000
      6 C6           1.7860     0.8950     0.2730 ca         1 2QJ       0.041000
      7 C7           1.3560     1.5850    -0.8830 ca         1 2QJ      -0.150000
      8 C8           0.0410     2.0710    -0.9820 ca         1 2QJ       0.017000
      9 C9          -0.8660     1.8730     0.0770 ca         1 2QJ      -0.289500
     10 C10         -0.4510     1.1770     1.2290 ca         1 2QJ       0.023000
     11 C11          0.8650     0.6920     1.3240 ca         1 2QJ       0.039000
     12 Cl1          1.3440    -0.1780     2.7830 cl         1 2QJ      -0.190000
     13 S13         -2.5590     2.4750    -0.0520 sy         1 2QJ       1.031000
     14 O14         -3.0780     2.6460     1.3110 o          1 2QJ      -0.521500
     15 O15         -2.5700     3.5840    -1.0170 o          1 2QJ      -0.521500
     16 C16         -3.4200     1.0790    -0.8010 ca         1 2QJ      -0.262500
     17 C17         -3.5170     0.9730    -2.2040 ca         1 2QJ      -0.005000
     18 C18         -4.1760    -0.1270    -2.7820 ca         1 2QJ      -0.127000
     19 C19         -4.7360    -1.1240    -1.9660 ca         1 2QJ      -0.033000
     20 C20         -4.6350    -1.0220    -0.5680 ca         1 2QJ      -0.041900
     21 C21         -3.9790     0.0750     0.0180 ca         1 2QJ       0.009000
     22 Br2         -5.3920    -2.3820     0.5430 br         1 2QJ      -0.081100
     23 C23          5.8120    -1.4730    -0.7400 c3         1 2QJ       0.284000
     24 F24          4.7370    -2.2830    -0.8890 f          1 2QJ      -0.102333
     25 F25          6.1680    -1.0330    -1.9690 f          1 2QJ      -0.102333
     26 F26          6.8310    -2.2310    -0.2690 f          1 2QJ      -0.102333
     27 O27          5.2140    -0.8130     1.5670 oh         1 2QJ      -0.638000
     28 H1           6.4500     1.5010     1.0770 hc         1 2QJ       0.070700
     29 H2           7.5770     0.1600     0.7960 hc         1 2QJ       0.070700
     30 H3           6.9840     1.1210    -0.5700 hc         1 2QJ       0.070700
     31 H4           3.2260    -0.1990     1.2490 hn         1 2QJ       0.184000
     32 H5           2.0210     1.7490    -1.7250 ha         1 2QJ       0.155000
     33 H6          -0.2670     2.5960    -1.8850 ha         1 2QJ       0.142000
     34 H7          -1.1400     1.0050     2.0540 ha         1 2QJ       0.153000
     35 H8          -3.0840     1.7350    -2.8510 ha         1 2QJ       0.138000
     36 H9          -4.2500    -0.2060    -3.8640 ha         1 2QJ       0.126000
     37 H10         -5.2450    -1.9740    -2.4160 ha         1 2QJ       0.134000
     38 H11         -3.9070     0.1360     1.1030 ha         1 2QJ       0.152000
     39 H12          5.9990    -1.3280     1.8650 ho         1 2QJ       0.470000
@<TRIPOS>BOND
     1     1     2 1   
     2     1    28 1   
     3     1    29 1   
     4     1    30 1   
     5     2     3 1   
     6     2    23 1   
     7     2    27 1   
     8     3     4 2   
     9     3     5 1   
    10     5     6 1   
    11     5    31 1   
    12     6     7 ar  
    13     6    11 ar  
    14     7     8 ar  
    15     7    32 1   
    16     8     9 ar  
    17     8    33 1   
    18     9    10 ar  
    19     9    13 1   
    20    10    11 ar  
    21    10    34 1   
    22    11    12 1   
    23    13    14 2   
    24    13    15 2   
    25    13    16 1   
    26    16    17 ar  
    27    16    21 ar  
    28    17    18 ar  
    29    17    35 1   
    30    18    19 ar  
    31    18    36 1   
    32    19    20 ar  
    33    19    37 1   
    34    20    21 ar  
    35    20    22 1   
    36    21    38 1   
    37    23    24 1   
    38    23    25 1   
    39    23    26 1   
    40    27    39 1   
@<TRIPOS>SUBSTRUCTURE
     1 2QJ         1 TEMP              0 ****  ****    0 ROOT
