@<TRIPOS>MOLECULE
2QJ
   39    40     1     0     0
SMALL
abcg2


@<TRIPOS>ATOM
      1 C1           6.3190     0.8730     0.3600 c3         1 2QJ      -0.090100
      2 C2           5.4050    -0.3370     0.1800 c3         1 2QJ       0.044000
      3 C3           4.0730     0.1640    -0.4210 c          1 2QJ       0.581100
      4 O4           3.9460     0.3670    -1.6070 o          1 2QJ      -0.536100
      5 N5           3.1250     0.3900     0.5230 ns         1 2QJ      -0.141000
      6 C6           1.8370     0.8710     0.3420 ca         1 2QJ       0.041000
      7 C7           1.4190     1.5380    -0.8120 ca         1 2QJ      -0.150000
      8 C8           0.1240     2.0070    -0.9270 ca         1 2QJ       0.017000
      9 C9          -0.7730     1.8160     0.1110 ca         1 2QJ      -0.289500
     10 C10         -0.3870     1.1710     1.2760 ca         1 2QJ       0.023000
     11 C11          0.9070     0.7040     1.3800 ca         1 2QJ       0.039000
     12 CL1          1.3770    -0.1020     2.8360 cl         1 2QJ      -0.190000
     13 S13         -2.4350     2.4060    -0.0400 sy         1 2QJ       1.031000
     14 O14         -2.9690     2.5980     1.3020 o          1 2QJ      -0.521500
     15 O15         -2.4360     3.5070    -0.9950 o          1 2QJ      -0.521500
     16 C16         -3.2980     1.0420    -0.7850 ca         1 2QJ      -0.262500
     17 C17         -3.3170     0.9280    -2.1680 ca         1 2QJ      -0.005000
     18 C18         -3.9840    -0.1450    -2.7360 ca         1 2QJ      -0.127000
     19 C19         -4.6250    -1.0830    -1.9380 ca         1 2QJ      -0.033000
     20 C20         -4.5950    -0.9370    -0.5580 ca         1 2QJ      -0.041900
     21 C21         -3.9360     0.1260     0.0390 ca         1 2QJ       0.009000
     22 BR2         -5.4740    -2.2010     0.5270 br         1 2QJ      -0.081100
     23 C23          6.0410    -1.3630    -0.7740 c3         1 2QJ       0.284000
     24 F24          5.1820    -2.3570    -1.0470 f          1 2QJ      -0.102333
     25 F25          6.4300    -0.8360    -1.9310 f          1 2QJ      -0.102333
     26 F26          7.1170    -1.9200    -0.2120 f          1 2QJ      -0.102333
     27 O27          5.2340    -0.9210     1.4400 oh         1 2QJ      -0.638000
     28 H1           5.8580     1.5740     1.0550 hc         1 2QJ       0.070700
     29 H2           7.2810     0.5730     0.7730 hc         1 2QJ       0.070700
     30 H3           6.4870     1.3930    -0.5810 hc         1 2QJ       0.070700
     31 H4           3.3830     0.1370     1.4680 hn         1 2QJ       0.184000
     32 H5           2.1080     1.7050    -1.6230 ha         1 2QJ       0.155000
     33 H6          -0.1660     2.5290    -1.8280 ha         1 2QJ       0.142000
     34 H7          -1.0750     1.0310     2.0980 ha         1 2QJ       0.153000
     35 H8          -2.8270     1.6570    -2.7980 ha         1 2QJ       0.138000
     36 H9          -4.0120    -0.2540    -3.8120 ha         1 2QJ       0.126000
     37 H10         -5.1410    -1.9150    -2.3980 ha         1 2QJ       0.134000
     38 H11         -3.9230     0.2400     1.1140 ha         1 2QJ       0.152000
     39 H12          4.7460    -1.7530     1.3850 ho         1 2QJ       0.470000
@<TRIPOS>BOND
     1     1     2 1   
     2     1    28 1   
     3     1    29 1   
     4     1    30 1   
     5     2     3 1   
     6     2    23 1   
     7     2    27 1   
     8     3     4 2   
     9     3     5 1   
    10     5     6 1   
    11     5    31 1   
    12     6     7 ar  
    13     6    11 ar  
    14     7     8 ar  
    15     7    32 1   
    16     8     9 ar  
    17     8    33 1   
    18     9    10 ar  
    19     9    13 1   
    20    10    11 ar  
    21    10    34 1   
    22    11    12 1   
    23    13    14 2   
    24    13    15 2   
    25    13    16 1   
    26    16    17 ar  
    27    16    21 ar  
    28    17    18 ar  
    29    17    35 1   
    30    18    19 ar  
    31    18    36 1   
    32    19    20 ar  
    33    19    37 1   
    34    20    21 ar  
    35    20    22 1   
    36    21    38 1   
    37    23    24 1   
    38    23    25 1   
    39    23    26 1   
    40    27    39 1   
@<TRIPOS>SUBSTRUCTURE
     1 2QJ         1 TEMP              0 ****  ****    0 ROOT
