@<TRIPOS>MOLECULE
2QK
   67    71     1     0     0
SMALL
abcg2


@<TRIPOS>ATOM
      1 C01         -4.9310     0.9920     3.8000 c3         1 2QK      -0.090100
      2 C02         -5.6380     0.9060     2.4540 c3         1 2QK      -0.088400
      3 C03         -4.6760     0.9420     1.2640 c3         1 2QK       0.163000
      4 N04         -3.8200    -0.2230     1.2920 ns         1 2QK      -0.507900
      5 C05         -2.6690    -0.2810     0.5960 c          1 2QK       0.616700
      6 O06         -2.2660     0.6660    -0.0650 o          1 2QK      -0.598100
      7 C07         -1.8990    -1.5570     0.6760 ca         1 2QK      -0.197600
      8 C08         -2.5030    -2.7890     1.0250 ca         1 2QK      -0.054000
      9 C09         -1.7870    -3.9590     1.0940 ca         1 2QK      -0.142000
     10 C10         -0.4210    -3.8850     0.8010 ca         1 2QK      -0.024200
     11 N11          0.5520    -4.8180     0.8040 na         1 2QK      -0.055400
     12 N12          1.7380    -4.3160     0.4590 nc         1 2QK      -0.518100
     13 C13          1.5720    -3.0350     0.2230 cd         1 2QK       0.430500
     14 C14          2.6990    -2.1810    -0.1500 ca         1 2QK      -0.146900
     15 C15          3.9870    -2.4590     0.3170 ca         1 2QK      -0.048000
     16 C16          5.0560    -1.6550    -0.0180 ca         1 2QK      -0.180500
     17 C17          4.8770    -0.5390    -0.8410 ca         1 2QK       0.161100
     18 O18          5.9810     0.1730    -1.1210 os         1 2QK      -0.355100
     19 C19          5.8820     1.4800    -1.6920 c6         1 2QK       0.178300
     20 C20          7.2960     1.8880    -2.0700 c6         1 2QK      -0.089400
     21 C21          8.1690     2.1230    -0.8460 c6         1 2QK       0.168800
     22 N22          7.5710     3.0990     0.0470 n3         1 2QK      -0.719600
     23 C23          8.4330     3.3810     1.1700 c3         1 2QK       0.154100
     24 C24          6.2530     2.6820     0.4880 c6         1 2QK       0.168800
     25 C25          5.3140     2.4790    -0.6920 c6         1 2QK      -0.089400
     26 C26          3.6020    -0.2580    -1.3250 ca         1 2QK      -0.180500
     27 C27          2.5340    -1.0750    -0.9800 ca         1 2QK      -0.048000
     28 C28          0.2000    -2.6800     0.4270 ca         1 2QK      -0.234900
     29 C29         -0.5530    -1.5070     0.3680 ca         1 2QK       0.031000
     30 C30         -5.4460     1.0430    -0.0370 ca         1 2QK      -0.080300
     31 C31         -5.8270    -0.1010    -0.7330 ca         1 2QK      -0.092000
     32 C32         -6.5630    -0.0300    -1.9050 ca         1 2QK      -0.108000
     33 C33         -6.9390     1.2050    -2.4130 ca         1 2QK      -0.100000
     34 C34         -6.5800     2.3620    -1.7390 ca         1 2QK      -0.103000
     35 C35         -5.8480     2.2680    -0.5650 ca         1 2QK       0.134000
     36 CL          -5.4420     3.7480     0.2560 cl         1 2QK      -0.210000
     37 H1          -5.6550     1.0030     4.6140 hc         1 2QK       0.036700
     38 H2          -4.2610     0.1480     3.9710 hc         1 2QK       0.036700
     39 H3          -4.3370     1.9040     3.8700 hc         1 2QK       0.036700
     40 H4          -6.2490     0.0000     2.3930 hc         1 2QK       0.051200
     41 H5          -6.3280     1.7450     2.3520 hc         1 2QK       0.051200
     42 H6          -4.0410     1.8260     1.3630 h1         1 2QK       0.088700
     43 H7          -4.0850    -0.9890     1.8890 hn         1 2QK       0.315500
     44 H8          -3.5660    -2.8390     1.2240 ha         1 2QK       0.107000
     45 H9          -2.2630    -4.8930     1.3590 ha         1 2QK       0.122000
     46 H10          0.4680    -5.8000     1.0110 hn         1 2QK       0.379000
     47 H11          4.1490    -3.3080     0.9680 ha         1 2QK       0.121500
     48 H12          6.0450    -1.8780     0.3640 ha         1 2QK       0.123500
     49 H13          5.2600     1.4450    -2.5930 h1         1 2QK       0.047700
     50 H14          7.7510     1.1340    -2.7160 hc         1 2QK       0.058200
     51 H15          7.2340     2.8100    -2.6530 hc         1 2QK       0.058200
     52 H16          8.3640     1.1660    -0.3320 h1         1 2QK       0.036700
     53 H17          9.1420     2.5010    -1.1690 h1         1 2QK       0.036700
     54 H19          8.6190     2.5020     1.8080 h1         1 2QK       0.029700
     55 H20          9.4000     3.7460     0.8200 h1         1 2QK       0.029700
     56 H21          7.9900     4.1580     1.7960 h1         1 2QK       0.029700
     57 H22          6.2960     1.7590     1.0930 h1         1 2QK       0.036700
     58 H23          5.8420     3.4570     1.1390 h1         1 2QK       0.036700
     59 H24          5.1680     3.4290    -1.2120 hc         1 2QK       0.058200
     60 H25          4.3310     2.1690    -0.3290 hc         1 2QK       0.058200
     61 H26          3.4190     0.5810    -1.9820 ha         1 2QK       0.123500
     62 H27          1.5610    -0.8440    -1.3950 ha         1 2QK       0.121500
     63 H28         -0.0980    -0.5630     0.1020 ha         1 2QK       0.144000
     64 H29         -5.5340    -1.0710    -0.3500 ha         1 2QK       0.113000
     65 H30         -6.8390    -0.9400    -2.4210 ha         1 2QK       0.116000
     66 H31         -7.5100     1.2750    -3.3290 ha         1 2QK       0.118000
     67 H32         -6.8640     3.3320    -2.1240 ha         1 2QK       0.129000
@<TRIPOS>BOND
     1     1     2 1   
     2     1    37 1   
     3     1    38 1   
     4     1    39 1   
     5     2     3 1   
     6     2    40 1   
     7     2    41 1   
     8     3     4 1   
     9     3    30 1   
    10     3    42 1   
    11     4     5 1   
    12     4    43 1   
    13     5     6 2   
    14     5     7 1   
    15     7     8 ar  
    16     7    29 ar  
    17     8     9 ar  
    18     8    44 1   
    19     9    10 ar  
    20     9    45 1   
    21    10    11 1   
    22    10    28 ar  
    23    11    12 1   
    24    11    46 1   
    25    12    13 2   
    26    13    14 1   
    27    13    28 1   
    28    14    15 ar  
    29    14    27 ar  
    30    15    16 ar  
    31    15    47 1   
    32    16    17 ar  
    33    16    48 1   
    34    17    18 1   
    35    17    26 ar  
    36    18    19 1   
    37    19    20 1   
    38    19    25 1   
    39    19    49 1   
    40    20    21 1   
    41    20    50 1   
    42    20    51 1   
    43    21    22 1   
    44    21    52 1   
    45    21    53 1   
    46    22    23 1   
    47    22    24 1   
    48    23    54 1   
    49    23    55 1   
    50    23    56 1   
    51    24    25 1   
    52    24    57 1   
    53    24    58 1   
    54    25    59 1   
    55    25    60 1   
    56    26    27 ar  
    57    26    61 1   
    58    27    62 1   
    59    28    29 ar  
    60    29    63 1   
    61    30    31 ar  
    62    30    35 ar  
    63    31    32 ar  
    64    31    64 1   
    65    32    33 ar  
    66    32    65 1   
    67    33    34 ar  
    68    33    66 1   
    69    34    35 ar  
    70    34    67 1   
    71    35    36 1   
@<TRIPOS>SUBSTRUCTURE
     1 2QK         1 TEMP              0 ****  ****    0 ROOT
