@<TRIPOS>MOLECULE
2QK
   67    71     1     0     0
SMALL
No Charge or Current Charge


@<TRIPOS>ATOM
      1 C01         -5.3790     0.4140     3.8180 c3         1 2QK      -0.090100
      2 C02         -5.8770     0.6530     2.3760 c3         1 2QK      -0.088400
      3 C03         -4.7450     0.8610     1.3440 c3         1 2QK       0.163000
      4 N04         -3.8750    -0.3160     1.2770 ns         1 2QK      -0.507900
      5 C05         -2.5310    -0.2810     0.9830 c          1 2QK       0.616700
      6 O06         -1.9580     0.7720     0.7450 o          1 2QK      -0.598100
      7 C07         -1.8090    -1.6090     0.9700 ca         1 2QK      -0.197600
      8 C08         -2.4740    -2.8390     1.2550 ca         1 2QK      -0.054000
      9 C09         -1.7650    -4.0590     1.2560 ca         1 2QK      -0.142000
     10 C10         -0.4020    -4.0270     0.9500 ca         1 2QK      -0.024200
     11 N11          0.5200    -5.0570     0.9300 na         1 2QK      -0.055400
     12 N12          1.8000    -4.5620     0.6190 nc         1 2QK      -0.518100
     13 C13          1.6160    -3.2450     0.4260 cd         1 2QK       0.430500
     14 C14          2.7140    -2.3340     0.0490 ca         1 2QK      -0.146900
     15 C15          4.0240    -2.5710     0.5130 ca         1 2QK      -0.048000
     16 C16          5.0810    -1.7310     0.1230 ca         1 2QK      -0.180500
     17 C17          4.8560    -0.6560    -0.7490 ca         1 2QK       0.161100
     18 O18          5.9450     0.1220    -1.0940 os         1 2QK      -0.355100
     19 C19          5.8050     1.3910    -1.7760 c6         1 2QK       0.178300
     20 C20          7.1940     1.8770    -2.2490 c6         1 2QK      -0.089400
     21 C21          8.0910     2.2760    -1.0550 c6         1 2QK       0.168800
     22 N22          7.4390     3.3120    -0.2080 n3         1 2QK      -0.719600
     23 C23          8.3250     3.7890     0.8760 c3         1 2QK       0.154100
     24 C24          6.1220     2.8450     0.3030 c6         1 2QK       0.168800
     25 C25          5.1710     2.4670    -0.8550 c6         1 2QK      -0.089400
     26 C26          3.5560    -0.4420    -1.2560 ca         1 2QK      -0.180500
     27 C27          2.4980    -1.2810    -0.8640 ca         1 2QK      -0.048000
     28 C28          0.2360    -2.8680     0.6510 ca         1 2QK      -0.234900
     29 C29         -0.4220    -1.6280     0.6730 ca         1 2QK       0.031000
     30 C30         -5.3100     1.2090    -0.0380 ca         1 2QK      -0.080300
     31 C31         -5.8520     0.1860    -0.8490 ca         1 2QK      -0.092000
     32 C32         -6.3790     0.4780    -2.1180 ca         1 2QK      -0.108000
     33 C33         -6.3780     1.7980    -2.5940 ca         1 2QK      -0.100000
     34 C34         -5.8520     2.8260    -1.7950 ca         1 2QK      -0.103000
     35 C35         -5.3230     2.5400    -0.5240 ca         1 2QK       0.134000
     36 Cl          -4.7030     3.8890     0.4320 cl         1 2QK      -0.210000
     37 H1          -6.2290     0.3250     4.5050 hc         1 2QK       0.036700
     38 H2          -4.7910    -0.5100     3.8860 hc         1 2QK       0.036700
     39 H3          -4.7530     1.2490     4.1550 hc         1 2QK       0.036700
     40 H4          -6.5050    -0.1920     2.0670 hc         1 2QK       0.051200
     41 H5          -6.5210     1.5410     2.3730 hc         1 2QK       0.051200
     42 H6          -4.1300     1.6940     1.7080 h1         1 2QK       0.088700
     43 H7          -4.2780    -1.2210     1.4690 hn         1 2QK       0.315500
     44 H8          -3.5350    -2.8660     1.4920 ha         1 2QK       0.107000
     45 H9          -2.2660    -4.9950     1.4950 ha         1 2QK       0.122000
     46 H10          0.3420    -6.0410     1.1260 hn         1 2QK       0.379000
     47 H11          4.2240    -3.4000     1.1900 ha         1 2QK       0.121500
     48 H12          6.0840    -1.9150     0.4990 ha         1 2QK       0.123500
     49 H13          5.1810     1.2450    -2.6690 h1         1 2QK       0.047700
     50 H14          7.6840     1.0920    -2.8400 hc         1 2QK       0.058200
     51 H15          7.0730     2.7390    -2.9180 hc         1 2QK       0.058200
     52 H16          8.3160     1.3800    -0.4560 h1         1 2QK       0.036700
     53 H17          9.0490     2.6500    -1.4450 h1         1 2QK       0.036700
     54 H19          8.5680     2.9730     1.5710 h1         1 2QK       0.029700
     55 H20          9.2640     4.1820     0.4650 h1         1 2QK       0.029700
     56 H21          7.8420     4.5940     1.4460 h1         1 2QK       0.029700
     57 H22          6.2540     1.9740     0.9620 h1         1 2QK       0.036700
     58 H23          5.6460     3.6340     0.9050 h1         1 2QK       0.036700
     59 H24          4.9450     3.3640    -1.4460 hc         1 2QK       0.058200
     60 H25          4.2130     2.1200    -0.4480 hc         1 2QK       0.058200
     61 H26          3.3470     0.3550    -1.9620 ha         1 2QK       0.123500
     62 H27          1.5120    -1.1190    -1.2940 ha         1 2QK       0.121500
     63 H28          0.1200    -0.7050     0.4810 ha         1 2QK       0.144000
     64 H29         -5.8660    -0.8430    -0.4950 ha         1 2QK       0.113000
     65 H30         -6.7900    -0.3210    -2.7320 ha         1 2QK       0.116000
     66 H31         -6.7870     2.0240    -3.5760 ha         1 2QK       0.118000
     67 H32         -5.8570     3.8500    -2.1600 ha         1 2QK       0.129000
@<TRIPOS>BOND
     1     1     2 1   
     2     1    37 1   
     3     1    38 1   
     4     1    39 1   
     5     2     3 1   
     6     2    40 1   
     7     2    41 1   
     8     3     4 1   
     9     3    30 1   
    10     3    42 1   
    11     4     5 1   
    12     4    43 1   
    13     5     6 2   
    14     5     7 1   
    15     7     8 ar  
    16     7    29 ar  
    17     8     9 ar  
    18     8    44 1   
    19     9    10 ar  
    20     9    45 1   
    21    10    11 1   
    22    10    28 ar  
    23    11    12 1   
    24    11    46 1   
    25    12    13 2   
    26    13    14 1   
    27    13    28 1   
    28    14    15 ar  
    29    14    27 ar  
    30    15    16 ar  
    31    15    47 1   
    32    16    17 ar  
    33    16    48 1   
    34    17    18 1   
    35    17    26 ar  
    36    18    19 1   
    37    19    20 1   
    38    19    25 1   
    39    19    49 1   
    40    20    21 1   
    41    20    50 1   
    42    20    51 1   
    43    21    22 1   
    44    21    52 1   
    45    21    53 1   
    46    22    23 1   
    47    22    24 1   
    48    23    54 1   
    49    23    55 1   
    50    23    56 1   
    51    24    25 1   
    52    24    57 1   
    53    24    58 1   
    54    25    59 1   
    55    25    60 1   
    56    26    27 ar  
    57    26    61 1   
    58    27    62 1   
    59    28    29 ar  
    60    29    63 1   
    61    30    31 ar  
    62    30    35 ar  
    63    31    32 ar  
    64    31    64 1   
    65    32    33 ar  
    66    32    65 1   
    67    33    34 ar  
    68    33    66 1   
    69    34    35 ar  
    70    34    67 1   
    71    35    36 1   
@<TRIPOS>SUBSTRUCTURE
     1 2QK         1 TEMP              0 ****  ****    0 ROOT
