@<TRIPOS>MOLECULE
2QO
   36    37     1     0     0
SMALL
No Charge or Current Charge


@<TRIPOS>ATOM
      1 C01          5.3630     0.1770     3.0940 c2         1 2QO      -0.327000
      2 C02          5.2540     0.8060     1.9130 c2         1 2QO      -0.205200
      3 C03          5.2370     0.1310     0.5570 c3         1 2QO       0.003100
      4 C04          3.9990     0.4990    -0.2490 ca         1 2QO      -0.089300
      5 C05          4.0560     1.5150    -1.2210 ca         1 2QO      -0.117000
      6 C06          2.9070     1.8560    -1.9520 ca         1 2QO      -0.118000
      7 C07          1.6960     1.1830    -1.7160 ca         1 2QO      -0.101000
      8 C08          1.6110     0.1520    -0.7480 cp         1 2QO       0.001000
      9 C09          0.3090    -0.5450    -0.4910 cp         1 2QO      -0.083000
     10 C10         -0.8730     0.2220    -0.3370 ca         1 2QO      -0.078000
     11 C11         -2.1230    -0.3800    -0.0910 ca         1 2QO      -0.029800
     12 C12         -3.3320     0.4820     0.0680 ce         1 2QO      -0.236200
     13 C13         -4.6300     0.1190     0.3120 cf         1 2QO      -0.215200
     14 C14         -5.7820     1.0620     0.4560 c          1 2QO       0.695200
     15 O15         -5.5820     2.2630     0.3520 o          1 2QO      -0.723500
     16 O16         -6.8810     0.5780     0.6730 o          1 2QO      -0.723500
     17 C17         -2.1960    -1.7830     0.0010 ca         1 2QO      -0.075000
     18 C18         -1.0400    -2.5650    -0.1540 ca         1 2QO      -0.209000
     19 C19          0.2030    -1.9600    -0.3990 ca         1 2QO       0.115100
     20 O20          1.2870    -2.7710    -0.5740 oh         1 2QO      -0.541100
     21 C21          2.7820    -0.1690    -0.0170 ca         1 2QO      -0.079000
     22 H1           5.3670     0.7280     4.0350 ha         1 2QO       0.158500
     23 H2           5.4490    -0.9090     3.1620 ha         1 2QO       0.158500
     24 H3           5.1680     1.8950     1.8720 ha         1 2QO       0.168000
     25 H4           6.1410     0.4100     0.0020 hc         1 2QO       0.045700
     26 H5           5.2900    -0.9590     0.6740 hc         1 2QO       0.045700
     27 H6           4.9880     2.0430    -1.4080 ha         1 2QO       0.099000
     28 H7           2.9530     2.6430    -2.7020 ha         1 2QO       0.105000
     29 H8           0.8160     1.4550    -2.2930 ha         1 2QO       0.120000
     30 H9          -0.8100     1.3060    -0.4000 ha         1 2QO       0.119000
     31 H10         -3.1240     1.5500    -0.0300 ha         1 2QO       0.191000
     32 H12         -4.8840    -0.9320     0.4170 ha         1 2QO       0.141000
     33 H15         -3.1440    -2.2780     0.1890 ha         1 2QO       0.119000
     34 H16         -1.1200    -3.6480    -0.0880 ha         1 2QO       0.098000
     35 H17          0.9900    -3.7020    -0.4910 ho         1 2QO       0.452000
     36 H18          2.7370    -0.9400     0.7480 ha         1 2QO       0.118000
@<TRIPOS>BOND
     1     1     2 2   
     2     1    22 1   
     3     1    23 1   
     4     2     3 1   
     5     2    24 1   
     6     3     4 1   
     7     3    25 1   
     8     3    26 1   
     9     4     5 ar  
    10     4    21 ar  
    11     5     6 ar  
    12     5    27 1   
    13     6     7 ar  
    14     6    28 1   
    15     7     8 ar  
    16     7    29 1   
    17     8     9 1   
    18     8    21 ar  
    19     9    10 ar  
    20     9    19 ar  
    21    10    11 ar  
    22    10    30 1   
    23    11    12 1   
    24    11    17 ar  
    25    12    13 2   
    26    12    31 1   
    27    13    14 1   
    28    13    32 1   
    29    14    15 1   
    30    14    16 1   
    31    17    18 ar  
    32    17    33 1   
    33    18    19 ar  
    34    18    34 1   
    35    19    20 1   
    36    20    35 1   
    37    21    36 1   
@<TRIPOS>SUBSTRUCTURE
     1 2QO         1 TEMP              0 ****  ****    0 ROOT
