@<TRIPOS>MOLECULE
2QO
   36    37     1     0     0
SMALL
abcg2


@<TRIPOS>ATOM
      1 C01          5.0480     0.1820     3.0810 c2         1 2QO      -0.327000
      2 C02          5.0860     0.8360     1.9270 c2         1 2QO      -0.205200
      3 C03          5.1780     0.1830     0.5800 c3         1 2QO       0.003100
      4 C04          3.9690     0.4950    -0.2680 ca         1 2QO      -0.089300
      5 C05          4.0230     1.4520    -1.2770 ca         1 2QO      -0.117000
      6 C06          2.8900     1.7480    -2.0220 ca         1 2QO      -0.118000
      7 C07          1.6970     1.0870    -1.7730 ca         1 2QO      -0.101000
      8 C08          1.6220     0.1200    -0.7690 cp         1 2QO       0.001000
      9 C09          0.3350    -0.5580    -0.4950 cp         1 2QO      -0.083000
     10 C10         -0.8190     0.1950    -0.3000 ca         1 2QO      -0.078000
     11 C11         -2.0680    -0.3770    -0.0540 ca         1 2QO      -0.029800
     12 C12         -3.2240     0.4960     0.1460 ce         1 2QO      -0.236200
     13 C13         -4.4850     0.1260     0.3870 cf         1 2QO      -0.215200
     14 C14         -5.6170     1.1090     0.5620 c          1 2QO       0.695200
     15 O15         -5.3450     2.3260     0.5450 o          1 2QO      -0.723500
     16 O16         -6.7500     0.6010     0.7050 o          1 2QO      -0.723500
     17 C17         -2.1350    -1.7720    -0.0090 ca         1 2QO      -0.075000
     18 C18         -1.0090    -2.5460    -0.2060 ca         1 2QO      -0.209000
     19 C19          0.2300    -1.9530    -0.4520 ca         1 2QO       0.115100
     20 O20          1.3350    -2.6860    -0.6730 oh         1 2QO      -0.541100
     21 C21          2.7660    -0.1590    -0.0240 ca         1 2QO      -0.079000
     22 H1           4.9740     0.7040     4.0260 ha         1 2QO       0.158500
     23 H2           5.0880    -0.9010     3.1230 ha         1 2QO       0.158500
     24 H3           5.0380     1.9210     1.9270 ha         1 2QO       0.168000
     25 H4           6.0780     0.5350     0.0660 hc         1 2QO       0.045700
     26 H5           5.2830    -0.8970     0.7030 hc         1 2QO       0.045700
     27 H6           4.9540     1.9670    -1.4820 ha         1 2QO       0.099000
     28 H7           2.9380     2.4920    -2.8070 ha         1 2QO       0.105000
     29 H8           0.8210     1.3130    -2.3690 ha         1 2QO       0.120000
     30 H9          -0.7370     1.2760    -0.3260 ha         1 2QO       0.119000
     31 H10         -3.0170     1.5600     0.0830 ha         1 2QO       0.191000
     32 H12         -4.7470    -0.9260     0.4580 ha         1 2QO       0.141000
     33 H15         -3.0760    -2.2720     0.1810 ha         1 2QO       0.119000
     34 H16         -1.0910    -3.6270    -0.1780 ha         1 2QO       0.098000
     35 H17          1.1290    -3.6260    -0.6220 ho         1 2QO       0.452000
     36 H18          2.7210    -0.8900     0.7740 ha         1 2QO       0.118000
@<TRIPOS>BOND
     1     1     2 2   
     2     1    22 1   
     3     1    23 1   
     4     2     3 1   
     5     2    24 1   
     6     3     4 1   
     7     3    25 1   
     8     3    26 1   
     9     4     5 ar  
    10     4    21 ar  
    11     5     6 ar  
    12     5    27 1   
    13     6     7 ar  
    14     6    28 1   
    15     7     8 ar  
    16     7    29 1   
    17     8     9 1   
    18     8    21 ar  
    19     9    10 ar  
    20     9    19 ar  
    21    10    11 ar  
    22    10    30 1   
    23    11    12 1   
    24    11    17 ar  
    25    12    13 2   
    26    12    31 1   
    27    13    14 1   
    28    13    32 1   
    29    14    15 1   
    30    14    16 1   
    31    17    18 ar  
    32    17    33 1   
    33    18    19 ar  
    34    18    34 1   
    35    19    20 1   
    36    20    35 1   
    37    21    36 1   
@<TRIPOS>SUBSTRUCTURE
     1 2QO         1 TEMP              0 ****  ****    0 ROOT
