@<TRIPOS>MOLECULE
2QT
   47    50     1     0     0
SMALL
No Charge or Current Charge


@<TRIPOS>ATOM
      1 C1          -2.5030    -1.3990     0.9610 ca         1 2QT      -0.071000
      2 C2          -3.7040    -2.1250     1.0290 ca         1 2QT      -0.101000
      3 C3          -4.9010    -1.5840     0.5310 ca         1 2QT       0.059000
      4 C4          -4.8830    -0.2900    -0.0450 ca         1 2QT      -0.184000
      5 C5          -3.6730     0.4390    -0.1070 ca         1 2QT      -0.052000
      6 C6          -2.4630    -0.1030     0.3940 cp         1 2QT      -0.060000
      7 C7          -1.1820     0.6710     0.3280 cp         1 2QT       0.025000
      8 C8           0.0550     0.0220     0.0880 ca         1 2QT      -0.183000
      9 C9           1.2690     0.7320     0.0230 ca         1 2QT       0.016000
     10 C10          1.2500     2.1300     0.2050 ca         1 2QT      -0.179000
     11 C11          0.0370     2.7890     0.4440 ca         1 2QT       0.201000
     12 C12         -1.1660     2.0740     0.5040 ca         1 2QT      -0.181000
     13 N14          2.4520    -0.0170    -0.2260 ns         1 2QT      -0.158000
     14 C15          3.7830     0.3550    -0.3780 c          1 2QT       0.604100
     15 O16          4.1800     1.5160    -0.3230 o          1 2QT      -0.541100
     16 C17          4.7320    -0.8570    -0.6330 c3         1 2QT       0.095800
     17 N18          6.2120    -0.6580    -0.5060 n3         1 2QT      -0.700600
     18 C19          7.0380    -1.8320    -0.8540 c5         1 2QT       0.160300
     19 C20          8.4640    -1.3140    -0.5290 c5         1 2QT      -0.078400
     20 C21          8.2360    -0.2890     0.6280 c5         1 2QT      -0.078400
     21 C22          6.6990    -0.3050     0.8450 c5         1 2QT       0.160300
     22 C23         -6.1100     0.2110    -0.5370 ca         1 2QT       0.410900
     23 N24         -7.2480    -0.4890    -0.4650 nb         1 2QT      -0.294000
     24 C25         -7.1630    -1.7070     0.1030 ca         1 2QT       0.176900
     25 N26         -6.0510    -2.2860     0.6010 nb         1 2QT      -0.214000
     26 N27         -6.2500     1.4300    -1.1270 nv         1 2QT      -1.070900
     27 F13          0.0280     4.1280     0.6220 f          1 2QT      -0.175000
     28 H1          -1.5980    -1.8430     1.3690 ha         1 2QT       0.118000
     29 H2          -3.7050    -3.1170     1.4750 ha         1 2QT       0.136000
     30 H3          -3.6560     1.4290    -0.5540 ha         1 2QT       0.110000
     31 H4           0.0680    -1.0540    -0.0650 ha         1 2QT       0.116000
     32 H5           2.1550     2.7260     0.1690 ha         1 2QT       0.167000
     33 H6          -2.0870     2.6130     0.7060 ha         1 2QT       0.134000
     34 H7           2.2910    -1.0120    -0.3050 hn         1 2QT       0.148000
     35 H8           4.4150    -1.6550     0.0520 h1         1 2QT       0.045700
     36 H9           4.5000    -1.2120    -1.6460 h1         1 2QT       0.045700
     37 H11          6.7800    -2.7000    -0.2310 h1         1 2QT       0.037700
     38 H12          6.9350    -2.1240    -1.9080 h1         1 2QT       0.037700
     39 H13          9.1360    -2.1300    -0.2420 hc         1 2QT       0.049950
     40 H14          8.9090    -0.8210    -1.4020 hc         1 2QT       0.049950
     41 H15          8.7750    -0.5610     1.5420 hc         1 2QT       0.049950
     42 H16          8.5790     0.7100     0.3360 hc         1 2QT       0.049950
     43 H17          6.3240     0.6660     1.1940 h1         1 2QT       0.037700
     44 H18          6.4120    -1.0680     1.5840 h1         1 2QT       0.037700
     45 H19         -8.0840    -2.2840     0.1660 h5         1 2QT       0.045100
     46 H20         -5.4210     1.9000    -1.4790 hn         1 2QT       0.497500
     47 H21         -7.1200     1.6250    -1.6170 hn         1 2QT       0.497500
@<TRIPOS>BOND
     1     1     2 ar  
     2     1     6 ar  
     3     1    28 1   
     4     2     3 ar  
     5     2    29 1   
     6     3     4 ar  
     7     3    25 ar  
     8     4     5 ar  
     9     4    22 ar  
    10     5     6 ar  
    11     5    30 1   
    12     6     7 1   
    13     7     8 ar  
    14     7    12 ar  
    15     8     9 ar  
    16     8    31 1   
    17     9    10 ar  
    18     9    13 1   
    19    10    11 ar  
    20    10    32 1   
    21    11    12 ar  
    22    11    27 1   
    23    12    33 1   
    24    13    14 1   
    25    13    34 1   
    26    14    15 2   
    27    14    16 1   
    28    16    17 1   
    29    16    35 1   
    30    16    36 1   
    31    17    18 1   
    32    17    21 1   
    33    18    19 1   
    34    18    37 1   
    35    18    38 1   
    36    19    20 1   
    37    19    39 1   
    38    19    40 1   
    39    20    21 1   
    40    20    41 1   
    41    20    42 1   
    42    21    43 1   
    43    21    44 1   
    44    22    23 ar  
    45    22    26 1   
    46    23    24 ar  
    47    24    25 ar  
    48    24    45 1   
    49    26    46 1   
    50    26    47 1   
@<TRIPOS>SUBSTRUCTURE
     1 2QT         1 TEMP              0 ****  ****    0 ROOT
