@<TRIPOS>MOLECULE
2QT
   47    50     1     0     0
SMALL
abcg2


@<TRIPOS>ATOM
      1 C1          -2.4810    -1.3140     1.1490 ca         1 2QT      -0.071000
      2 C2          -3.6600    -2.0050     1.2140 ca         1 2QT      -0.101000
      3 C3          -4.8220    -1.5020     0.5960 ca         1 2QT       0.059000
      4 C4          -4.7380    -0.2750    -0.0910 ca         1 2QT      -0.184000
      5 C5          -3.5200     0.4200    -0.1400 ca         1 2QT      -0.052000
      6 C6          -2.3900    -0.0810     0.4680 cp         1 2QT      -0.060000
      7 C7          -1.1120     0.6530     0.4060 cp         1 2QT       0.025000
      8 C8           0.0820    -0.0340     0.2210 ca         1 2QT      -0.183000
      9 C9           1.3010     0.6410     0.1420 ca         1 2QT       0.016000
     10 C10          1.3270     2.0300     0.2510 ca         1 2QT      -0.179000
     11 C11          0.1240     2.6840     0.4360 ca         1 2QT       0.201000
     12 C12         -1.0920     2.0420     0.5180 ca         1 2QT      -0.181000
     13 N14          2.4410    -0.1380    -0.0420 ns         1 2QT      -0.158000
     14 C15          3.7130     0.2460    -0.3440 c          1 2QT       0.604100
     15 O16          4.0720     1.3990    -0.4340 o          1 2QT      -0.541100
     16 C17          4.6330    -0.9390    -0.5990 c3         1 2QT       0.095800
     17 N18          6.0150    -0.5920    -0.5120 n3         1 2QT      -0.700600
     18 C19          6.9050    -1.5990    -1.0620 c5         1 2QT       0.160300
     19 C20          8.2900    -1.1310    -0.6190 c5         1 2QT      -0.078400
     20 C21          8.0250    -0.3250     0.6700 c5         1 2QT      -0.078400
     21 C22          6.5040    -0.3510     0.8340 c5         1 2QT       0.160300
     22 C23         -5.9550     0.1730    -0.7130 ca         1 2QT       0.410900
     23 N24         -7.0660    -0.5350    -0.6100 nb         1 2QT      -0.294000
     24 C25         -7.0100    -1.6770     0.0830 ca         1 2QT       0.176900
     25 N26         -5.9800    -2.2070     0.6810 nb         1 2QT      -0.214000
     26 N27         -6.0130     1.3210    -1.3930 nv         1 2QT      -1.070900
     27 F13          0.1520     4.0180     0.5560 f          1 2QT      -0.175000
     28 H1          -1.6090    -1.7120     1.6520 ha         1 2QT       0.118000
     29 H2          -3.7220    -2.9420     1.7510 ha         1 2QT       0.136000
     30 H3          -3.4430     1.3570    -0.6780 ha         1 2QT       0.110000
     31 H4           0.0620    -1.1110     0.1040 ha         1 2QT       0.116000
     32 H5           2.2440     2.5940     0.2040 ha         1 2QT       0.167000
     33 H6          -1.9960     2.6090     0.6950 ha         1 2QT       0.134000
     34 H7           2.2830    -1.1320     0.0050 hn         1 2QT       0.148000
     35 H8           4.3580    -1.7720     0.0750 h1         1 2QT       0.045700
     36 H9           4.4120    -1.2920    -1.6120 h1         1 2QT       0.045700
     37 H11          6.6940    -2.6010    -0.6520 h1         1 2QT       0.037700
     38 H12          6.7970    -1.6640    -2.1470 h1         1 2QT       0.037700
     39 H13          8.9620    -1.9720    -0.4590 hc         1 2QT       0.049950
     40 H14          8.7430    -0.4980    -1.3820 hc         1 2QT       0.049950
     41 H15          8.5210    -0.7550     1.5390 hc         1 2QT       0.049950
     42 H16          8.3870     0.6980     0.5680 hc         1 2QT       0.049950
     43 H17          6.1060     0.5780     1.2430 h1         1 2QT       0.037700
     44 H18          6.2080    -1.1650     1.5180 h1         1 2QT       0.037700
     45 H19         -7.9440    -2.2260     0.1450 h5         1 2QT       0.045100
     46 H20         -5.2030     1.8570    -1.6320 hn         1 2QT       0.497500
     47 H21         -6.8590     1.5560    -1.8810 hn         1 2QT       0.497500
@<TRIPOS>BOND
     1     1     2 ar  
     2     1     6 ar  
     3     1    28 1   
     4     2     3 ar  
     5     2    29 1   
     6     3     4 ar  
     7     3    25 ar  
     8     4     5 ar  
     9     4    22 ar  
    10     5     6 ar  
    11     5    30 1   
    12     6     7 1   
    13     7     8 ar  
    14     7    12 ar  
    15     8     9 ar  
    16     8    31 1   
    17     9    10 ar  
    18     9    13 1   
    19    10    11 ar  
    20    10    32 1   
    21    11    12 ar  
    22    11    27 1   
    23    12    33 1   
    24    13    14 1   
    25    13    34 1   
    26    14    15 2   
    27    14    16 1   
    28    16    17 1   
    29    16    35 1   
    30    16    36 1   
    31    17    18 1   
    32    17    21 1   
    33    18    19 1   
    34    18    37 1   
    35    18    38 1   
    36    19    20 1   
    37    19    39 1   
    38    19    40 1   
    39    20    21 1   
    40    20    41 1   
    41    20    42 1   
    42    21    43 1   
    43    21    44 1   
    44    22    23 ar  
    45    22    26 1   
    46    23    24 ar  
    47    24    25 ar  
    48    24    45 1   
    49    26    46 1   
    50    26    47 1   
@<TRIPOS>SUBSTRUCTURE
     1 2QT         1 TEMP              0 ****  ****    0 ROOT
