@<TRIPOS>MOLECULE
2QU
   26    28     1     0     0
SMALL
abcg2


@<TRIPOS>ATOM
      1 C1           1.7240     2.2020     0.1740 ca         1 2QU      -0.066000
      2 C2           0.3640     2.0600     0.1570 ca         1 2QU      -0.118000
      3 C3          -0.2040     0.7730     0.0170 cp         1 2QU       0.382500
      4 N4           0.5430    -0.3020    -0.0890 nb         1 2QU      -0.649000
      5 C5           1.8710    -0.1700    -0.0760 ca         1 2QU       0.124000
      6 C6           2.5360     1.0580     0.0500 ca         1 2QU       0.026000
      7 N7           3.8890     1.1480     0.0570 nb         1 2QU      -0.212000
      8 C8           4.5270     0.0140    -0.0640 ca         1 2QU       0.185900
      9 N9           4.0210    -1.2190    -0.1910 nb         1 2QU      -0.294000
     10 C10          2.7040    -1.3410    -0.1990 ca         1 2QU       0.424900
     11 N11          2.1440    -2.5370    -0.3160 nv         1 2QU      -1.051900
     12 C12         -1.6690     0.5740    -0.0010 cp         1 2QU      -0.077500
     13 C13         -2.5550     1.6100    -0.3010 ca         1 2QU      -0.173000
     14 C14         -3.9120     1.3470    -0.3030 ca         1 2QU       0.365900
     15 N15         -4.4250     0.1500    -0.0260 nb         1 2QU      -0.695000
     16 C16         -3.5770    -0.8000     0.2480 ca         1 2QU       0.566200
     17 C17         -2.2010    -0.6790     0.2800 ca         1 2QU      -0.167000
     18 F18         -4.1150    -1.9910     0.5250 f          1 2QU      -0.227200
     19 H1           2.1840     3.1750     0.2890 ha         1 2QU       0.143000
     20 H2          -0.2680     2.9290     0.2680 ha         1 2QU       0.129000
     21 H3           5.6110     0.0670    -0.0630 h5         1 2QU       0.048100
     22 H4           1.1420    -2.6290    -0.3330 hn         1 2QU       0.513000
     23 H5           2.7100    -3.3610    -0.4220 hn         1 2QU       0.513000
     24 H6          -2.2130     2.6030    -0.5520 ha         1 2QU       0.130000
     25 H7          -4.6190     2.1320    -0.5400 h4         1 2QU       0.029100
     26 H8          -1.5710    -1.5230     0.5200 ha         1 2QU       0.153000
@<TRIPOS>BOND
     1     1     2 ar  
     2     1     6 ar  
     3     1    19 1   
     4     2     3 ar  
     5     2    20 1   
     6     3     4 ar  
     7     3    12 1   
     8     4     5 ar  
     9     5     6 ar  
    10     5    10 ar  
    11     6     7 ar  
    12     7     8 ar  
    13     8     9 ar  
    14     8    21 1   
    15     9    10 ar  
    16    10    11 1   
    17    11    22 1   
    18    11    23 1   
    19    12    13 ar  
    20    12    17 ar  
    21    13    14 ar  
    22    13    24 1   
    23    14    15 ar  
    24    14    25 1   
    25    15    16 ar  
    26    16    17 ar  
    27    16    18 1   
    28    17    26 1   
@<TRIPOS>SUBSTRUCTURE
     1 2QU         1 TEMP              0 ****  ****    0 ROOT
