@<TRIPOS>MOLECULE
2QU
   26    28     1     0     0
SMALL
No Charge or Current Charge


@<TRIPOS>ATOM
      1 C1           1.7740     2.2080     0.1250 ca         1 2QU      -0.066000
      2 C2           0.3750     2.0820     0.1170 ca         1 2QU      -0.118000
      3 C3          -0.2210     0.8000     0.0220 cp         1 2QU       0.382500
      4 N4           0.5480    -0.3140    -0.0490 nb         1 2QU      -0.649000
      5 C5           1.9100    -0.2080    -0.0410 ca         1 2QU       0.124000
      6 C6           2.5660     1.0510     0.0430 ca         1 2QU       0.026000
      7 N7           3.9140     1.1390     0.0440 nb         1 2QU      -0.212000
      8 C8           4.6130    -0.0110    -0.0400 ca         1 2QU       0.185900
      9 N9           4.1050    -1.2550    -0.1230 nb         1 2QU      -0.294000
     10 C10          2.7680    -1.3480    -0.1200 ca         1 2QU       0.424900
     11 N11          2.2970    -2.6320    -0.2080 nv         1 2QU      -1.051900
     12 C12         -1.7170     0.5950     0.0090 cp         1 2QU      -0.077500
     13 C13         -2.6370     1.6420    -0.2690 ca         1 2QU      -0.173000
     14 C14         -4.0220     1.3990    -0.2710 ca         1 2QU       0.365900
     15 N15         -4.5610     0.1870    -0.0160 nb         1 2QU      -0.695000
     16 C16         -3.7010    -0.8170     0.2460 ca         1 2QU       0.566200
     17 C17         -2.3070    -0.6710     0.2690 ca         1 2QU      -0.167000
     18 F18         -4.2710    -2.0140     0.4960 f          1 2QU      -0.227200
     19 H1           2.2360     3.1900     0.1970 ha         1 2QU       0.143000
     20 H2          -0.2370     2.9730     0.1950 ha         1 2QU       0.129000
     21 H3           5.6980     0.0750    -0.0390 h5         1 2QU       0.048100
     22 H4           1.3080    -2.7370    -0.4200 hn         1 2QU       0.513000
     23 H5           2.9200    -3.3520    -0.5650 hn         1 2QU       0.513000
     24 H6          -2.2950     2.6460    -0.5010 ha         1 2QU       0.130000
     25 H7          -4.7240     2.2040    -0.4880 h4         1 2QU       0.029100
     26 H8          -1.6980    -1.5410     0.4950 ha         1 2QU       0.153000
@<TRIPOS>BOND
     1     1     2 ar  
     2     1     6 ar  
     3     1    19 1   
     4     2     3 ar  
     5     2    20 1   
     6     3     4 ar  
     7     3    12 1   
     8     4     5 ar  
     9     5     6 ar  
    10     5    10 ar  
    11     6     7 ar  
    12     7     8 ar  
    13     8     9 ar  
    14     8    21 1   
    15     9    10 ar  
    16    10    11 1   
    17    11    22 1   
    18    11    23 1   
    19    12    13 ar  
    20    12    17 ar  
    21    13    14 ar  
    22    13    24 1   
    23    14    15 ar  
    24    14    25 1   
    25    15    16 ar  
    26    16    17 ar  
    27    16    18 1   
    28    17    26 1   
@<TRIPOS>SUBSTRUCTURE
     1 2QU         1 TEMP              0 ****  ****    0 ROOT
