@<TRIPOS>MOLECULE
2QV
   28    30     1     0     0
SMALL
bcc


@<TRIPOS>ATOM
      1 CL7          4.4040     1.5360    -1.1170 cl         1 2QV      -0.112400
      2 C1           3.4770    -1.9660     0.5360 ca         1 2QV      -0.118000
      3 C2           2.0920    -1.9630     0.4860 ca         1 2QV      -0.118000
      4 C3           1.4030    -0.8770    -0.0540 cp         1 2QV      -0.021000
      5 C4           2.1340     0.2040    -0.5470 ca         1 2QV      -0.118000
      6 C5           3.5170     0.1850    -0.4870 ca         1 2QV       0.029400
      7 C6           4.2070    -0.8910     0.0500 ca         1 2QV      -0.118000
      8 C8          -0.0720    -0.8630    -0.1030 cp         1 2QV      -0.058000
      9 C9          -0.7900    -2.0510    -0.3670 ca         1 2QV      -0.089000
     10 C10         -2.1570    -2.0590    -0.4210 ca         1 2QV      -0.183300
     11 C11         -2.8910    -0.8750    -0.2110 ca         1 2QV       0.453600
     12 C12         -2.1830     0.3150     0.0540 ca         1 2QV      -0.315600
     13 C13         -0.7810     0.3010     0.1050 ca         1 2QV      -0.073000
     14 C14         -2.9910     1.4880     0.2660 ca         1 2QV       0.742200
     15 N15         -4.3110     1.4150     0.2060 nb         1 2QV      -0.823000
     16 C16         -4.8550     0.2230    -0.0580 ca         1 2QV       0.703900
     17 N17         -4.2480    -0.9120    -0.2690 nb         1 2QV      -0.741000
     18 N18         -2.4460     2.6750     0.5300 nv         1 2QV      -0.965500
     19 H2           1.5450    -2.8050     0.8900 ha         1 2QV       0.139000
     20 H3           1.6260     1.0480    -0.9960 ha         1 2QV       0.145000
     21 H4           5.2870    -0.8930     0.0870 ha         1 2QV       0.149000
     22 H5          -0.2490    -2.9710    -0.5500 ha         1 2QV       0.137000
     23 H6          -2.6960    -2.9720    -0.6370 ha         1 2QV       0.154000
     24 H7          -0.2340     1.2070     0.3340 ha         1 2QV       0.125000
     25 H8          -5.9410     0.2100    -0.0990 h5         1 2QV       0.045100
     26 H9          -1.4550     2.8310     0.5620 hn         1 2QV       0.446800
     27 H10         -3.0430     3.4750     0.6580 hn         1 2QV       0.446800
     28 H1           3.9980    -2.8120     0.9640 ha         1 2QV       0.138000
@<TRIPOS>BOND
     1     1     6 1   
     2     2     3 ar  
     3     2     7 ar  
     4     2    28 1   
     5     3     4 ar  
     6     3    19 1   
     7     4     5 ar  
     8     4     8 1   
     9     5     6 ar  
    10     5    20 1   
    11     6     7 ar  
    12     7    21 1   
    13     8     9 ar  
    14     8    13 ar  
    15     9    10 ar  
    16     9    22 1   
    17    10    11 ar  
    18    10    23 1   
    19    11    12 ar  
    20    11    17 ar  
    21    12    13 ar  
    22    12    14 ar  
    23    13    24 1   
    24    14    15 ar  
    25    14    18 1   
    26    15    16 ar  
    27    16    17 ar  
    28    16    25 1   
    29    18    26 1   
    30    18    27 1   
@<TRIPOS>SUBSTRUCTURE
     1 2QV         1 TEMP              0 ****  ****    0 ROOT
