@<TRIPOS>MOLECULE
2QV
   28    30     1     0     0
SMALL
No Charge or Current Charge


@<TRIPOS>ATOM
      1 Cl7          4.4800     1.6040    -1.0520 cl         1 2QV      -0.204000
      2 C1           3.5390    -2.0060     0.5200 ca         1 2QV      -0.100000
      3 C2           2.1340    -2.0020     0.4690 ca         1 2QV      -0.100000
      4 C3           1.4210    -0.8890    -0.0470 cp         1 2QV      -0.021000
      5 C4           2.1740     0.2200    -0.5120 ca         1 2QV      -0.100000
      6 C5           3.5770     0.2150    -0.4620 ca         1 2QV       0.121000
      7 C6           4.2620    -0.8960     0.0530 ca         1 2QV      -0.100000
      8 C8          -0.0750    -0.8860    -0.1010 cp         1 2QV      -0.058000
      9 C9          -0.7980    -2.0710    -0.3800 ca         1 2QV      -0.071000
     10 C10         -2.2010    -2.0710    -0.4290 ca         1 2QV      -0.100000
     11 C11         -2.9290    -0.8910    -0.2010 ca         1 2QV       0.060000
     12 C12         -2.2270     0.3070     0.0770 ca         1 2QV      -0.185000
     13 C13         -0.8140     0.3020     0.1280 ca         1 2QV      -0.055000
     14 C14         -3.0020     1.4670     0.3010 ca         1 2QV       0.413900
     15 N15         -4.3390     1.4540     0.2570 nb         1 2QV      -0.297000
     16 C16         -4.9140     0.2670    -0.0160 ca         1 2QV       0.177900
     17 N17         -4.2780    -0.9000    -0.2470 nb         1 2QV      -0.215000
     18 N18         -2.4740     2.6930     0.5700 nv         1 2QV      -1.075900
     19 H2           1.5930    -2.8650     0.8470 ha         1 2QV       0.121000
     20 H3           1.6670     1.0860    -0.9290 ha         1 2QV       0.127000
     21 H4           5.3490    -0.8960     0.0910 ha         1 2QV       0.131000
     22 H5          -0.2660    -2.9990    -0.5740 ha         1 2QV       0.119000
     23 H6          -2.7290    -2.9970    -0.6480 ha         1 2QV       0.136000
     24 H7          -0.2750     1.2150     0.3630 ha         1 2QV       0.107000
     25 H8          -6.0020     0.2470    -0.0540 h5         1 2QV       0.045100
     26 H9          -1.4980     2.8630     0.3440 hn         1 2QV       0.502000
     27 H10         -3.0920     3.4990     0.5230 hn         1 2QV       0.502000
     28 H1           4.0660    -2.8680     0.9230 ha         1 2QV       0.120000
@<TRIPOS>BOND
     1     1     6 1   
     2     2     3 ar  
     3     2     7 ar  
     4     2    28 1   
     5     3     4 ar  
     6     3    19 1   
     7     4     5 ar  
     8     4     8 1   
     9     5     6 ar  
    10     5    20 1   
    11     6     7 ar  
    12     7    21 1   
    13     8     9 ar  
    14     8    13 ar  
    15     9    10 ar  
    16     9    22 1   
    17    10    11 ar  
    18    10    23 1   
    19    11    12 ar  
    20    11    17 ar  
    21    12    13 ar  
    22    12    14 ar  
    23    13    24 1   
    24    14    15 ar  
    25    14    18 1   
    26    15    16 ar  
    27    16    17 ar  
    28    16    25 1   
    29    18    26 1   
    30    18    27 1   
@<TRIPOS>SUBSTRUCTURE
     1 2QV         1 TEMP              0 ****  ****    0 ROOT
