@<TRIPOS>MOLECULE
2QW
   57    58     1     0     0
SMALL
No Charge or Current Charge


@<TRIPOS>ATOM
      1 O1           1.2980     0.9600    -0.9970 o          1 2QW      -0.583100
      2 C7           1.8570    -2.6750    -1.3620 c6         1 2QW      -0.072400
      3 C6           1.7530    -2.3580     0.1600 c6         1 2QW      -0.067700
      4 C1          -3.6730     0.0350     0.4550 c3         1 2QW      -0.067400
      5 N1          -0.3790    -0.9950    -0.0200 ns         1 2QW      -0.486900
      6 C5           1.0310    -0.9940     0.4490 c3         1 2QW       0.027700
      7 C3          -7.2100     1.8620    -1.0330 c3         1 2QW       0.114900
      8 C2          -4.9380     0.2860    -0.3930 c3         1 2QW       0.145600
      9 C12          1.7880     0.2410    -0.1300 c          1 2QW       0.594100
     10 N2           3.0480     0.4390     0.4240 ns         1 2QW      -0.142000
     11 C13          4.0640     1.4070     0.1840 ca         1 2QW      -0.032000
     12 C19          3.9640     2.4240    -0.7910 ca         1 2QW      -0.139000
     13 C18          5.0130     3.3430    -0.9700 ca         1 2QW      -0.086000
     14 C16          6.1760     3.2610    -0.1840 ca         1 2QW      -0.094300
     15 C17          7.3080     4.2590    -0.3780 c3         1 2QW      -0.042800
     16 C15          6.2790     2.2500     0.7880 ca         1 2QW      -0.086000
     17 C14          5.2300     1.3310     0.9680 ca         1 2QW      -0.139000
     18 C11          1.1020    -3.5540     0.9150 c6         1 2QW      -0.072400
     19 C10          1.8800    -4.8700     0.6660 c6         1 2QW      -0.074400
     20 C9           1.9870    -5.1770    -0.8470 c6         1 2QW      -0.076400
     21 C8           2.6290    -3.9950    -1.6130 c6         1 2QW      -0.074400
     22 O           -1.3820    -1.5310     1.9570 o          1 2QW      -0.611100
     23 C           -2.8650    -1.2140     0.0220 c3         1 2QW       0.090500
     24 N           -3.7000    -2.4550     0.1680 n8         1 2QW      -0.990200
     25 SE          -5.7720     1.8550     0.1400 ss         1 2QW      -0.569000
     26 H1           0.8530    -2.7540    -1.8010 hc         1 2QW       0.046450
     27 H2           2.3640    -1.8570    -1.8900 hc         1 2QW       0.046450
     28 H3           2.7750    -2.2500     0.5510 hc         1 2QW       0.050700
     29 H5          -3.9550    -0.0550     1.5110 hc         1 2QW       0.065700
     30 H6          -0.5560    -0.7500    -0.9890 hn         1 2QW       0.333500
     31 H7           1.0320    -0.8480     1.5370 h1         1 2QW       0.091700
     32 H8          -6.8480     1.8830    -2.0690 h1         1 2QW       0.055033
     33 H9          -7.8200     0.9620    -0.8840 h1         1 2QW       0.055033
     34 H10         -7.8310     2.7490    -0.8540 h1         1 2QW       0.055033
     35 H11         -4.6630     0.3650    -1.4530 h1         1 2QW       0.063700
     36 H12         -5.6390    -0.5520    -0.2790 h1         1 2QW       0.063700
     37 H13          3.2970    -0.2390     1.1320 hn         1 2QW       0.153000
     38 H14          3.0870     2.5220    -1.4220 ha         1 2QW       0.125000
     39 H15          4.9200     4.1220    -1.7240 ha         1 2QW       0.113000
     40 H16          7.1670     5.1380     0.2620 hc         1 2QW       0.041700
     41 H17          8.2800     3.8160    -0.1290 hc         1 2QW       0.041700
     42 H18          7.3620     4.6060    -1.4170 hc         1 2QW       0.041700
     43 H19          7.1710     2.1760     1.4070 ha         1 2QW       0.113000
     44 H20          5.3290     0.5560     1.7250 ha         1 2QW       0.125000
     45 H21          1.0700    -3.3450     1.9930 hc         1 2QW       0.046450
     46 H22          0.0620    -3.6870     0.5910 hc         1 2QW       0.046450
     47 H23          2.8860    -4.7950     1.1020 hc         1 2QW       0.040950
     48 H24          1.3790    -5.7010     1.1800 hc         1 2QW       0.040950
     49 H25          2.5810    -6.0880    -1.0020 hc         1 2QW       0.040200
     50 H26          0.9880    -5.3830    -1.2550 hc         1 2QW       0.040200
     51 H27          2.6500    -4.2150    -2.6890 hc         1 2QW       0.040950
     52 H28          3.6760    -3.8760    -1.3000 hc         1 2QW       0.040950
     53 H29         -2.6410    -1.1020    -1.0490 h1         1 2QW       0.064700
     54 H30         -3.1720    -3.2660    -0.1790 hn         1 2QW       0.411000
     55 H31         -3.8070    -2.6640     1.1690 hn         1 2QW       0.411000
     56 C4          -1.4820    -1.2570     0.7670 c          1 2QW       0.561100
     57 H4          -3.0250     0.9160     0.3760 hc         1 2QW       0.065700
@<TRIPOS>BOND
     1     1     9 2   
     2     2     3 1   
     3     2    21 1   
     4     2    26 1   
     5     2    27 1   
     6     3     6 1   
     7     3    18 1   
     8     3    28 1   
     9     4     8 1   
    10     4    23 1   
    11     4    29 1   
    12     4    57 1   
    13     5     6 1   
    14     5    30 1   
    15     5    56 1   
    16     6     9 1   
    17     6    31 1   
    18     7    25 1   
    19     7    32 1   
    20     7    33 1   
    21     7    34 1   
    22     8    25 1   
    23     8    35 1   
    24     8    36 1   
    25     9    10 1   
    26    10    11 1   
    27    10    37 1   
    28    11    12 ar  
    29    11    17 ar  
    30    12    13 ar  
    31    12    38 1   
    32    13    14 ar  
    33    13    39 1   
    34    14    15 1   
    35    14    16 ar  
    36    15    40 1   
    37    15    41 1   
    38    15    42 1   
    39    16    17 ar  
    40    16    43 1   
    41    17    44 1   
    42    18    19 1   
    43    18    45 1   
    44    18    46 1   
    45    19    20 1   
    46    19    47 1   
    47    19    48 1   
    48    20    21 1   
    49    20    49 1   
    50    20    50 1   
    51    21    51 1   
    52    21    52 1   
    53    22    56 2   
    54    23    24 1   
    55    23    53 1   
    56    23    56 1   
    57    24    54 1   
    58    24    55 1   
@<TRIPOS>SUBSTRUCTURE
     1 2QW         1 TEMP              0 ****  ****    0 ROOT
