@<TRIPOS>MOLECULE
2QW
   57    58     1     0     0
SMALL
bcc


@<TRIPOS>ATOM
      1 O1           1.2420     0.5560    -1.0370 o          1 2QW      -0.583100
      2 C7           1.8870    -2.7760    -1.4470 c6         1 2QW      -0.072400
      3 C6           1.8100    -2.5810     0.0670 c6         1 2QW      -0.067700
      4 C1          -3.1560     0.1830     0.4130 c3         1 2QW      -0.067400
      5 N1          -0.3420    -1.3300     0.0490 ns         1 2QW      -0.553900
      6 C5           1.0330    -1.3090     0.4720 c3         1 2QW       0.027700
      7 C3          -6.5590     2.3800    -1.1190 c3         1 2QW       0.067000
      8 C2          -4.4380     0.5140    -0.3330 c3         1 2QW       0.097700
      9 C12          1.7070    -0.0600    -0.0960 c          1 2QW       0.661100
     10 N2           2.8670     0.2520     0.5270 ns         1 2QW      -0.468100
     11 C13          3.7520     1.3040     0.2540 ca         1 2QW       0.060600
     12 C19          3.8250     1.9660    -0.9710 ca         1 2QW      -0.157000
     13 C18          4.7550     2.9790    -1.1510 ca         1 2QW      -0.104000
     14 C16          5.6340     3.3670    -0.1440 ca         1 2QW      -0.094300
     15 C17          6.6110     4.4870    -0.3530 c3         1 2QW      -0.042800
     16 C15          5.5560     2.6880     1.0690 ca         1 2QW      -0.104000
     17 C14          4.6320     1.6770     1.2700 ca         1 2QW      -0.157000
     18 C11          1.2160    -3.8180     0.7380 c6         1 2QW      -0.072400
     19 C10          2.0040    -5.0760     0.3850 c6         1 2QW      -0.074400
     20 C9           2.0800    -5.2720    -1.1250 c6         1 2QW      -0.076400
     21 C8           2.6660    -4.0390    -1.8050 c6         1 2QW      -0.074400
     22 O           -1.2760    -1.7170     2.0750 o          1 2QW      -0.611100
     23 C           -2.7590    -1.2890     0.2300 c3         1 2QW       0.090500
     24 N           -3.7770    -2.1620     0.7690 n8         1 2QW      -0.879800
     25 SE          -4.8880     2.4110    -0.1120 ss         1 2QW      -0.473200
     26 H1           0.8730    -2.8560    -1.8530 hc         1 2QW       0.046450
     27 H2           2.3540    -1.9130    -1.9290 hc         1 2QW       0.046450
     28 H3           2.8330    -2.4580     0.4440 hc         1 2QW       0.050700
     29 H5          -3.2720     0.3890     1.4820 hc         1 2QW       0.065700
     30 H6          -0.5280    -1.1040    -0.9160 hn         1 2QW       0.333500
     31 H7           1.0410    -1.2480     1.5630 h1         1 2QW       0.091700
     32 H8          -6.3830     2.0720    -2.1490 h1         1 2QW       0.055033
     33 H9          -7.2770     1.7060    -0.6560 h1         1 2QW       0.055033
     34 H10         -6.9730     3.3880    -1.1210 h1         1 2QW       0.055033
     35 H11         -4.3240     0.3050    -1.3990 h1         1 2QW       0.063700
     36 H12         -5.2660    -0.0870     0.0430 h1         1 2QW       0.063700
     37 H13          3.0860    -0.2790     1.3570 hn         1 2QW       0.319500
     38 H14          3.1750     1.6980    -1.7890 ha         1 2QW       0.143000
     39 H15          4.7950     3.4760    -2.1140 ha         1 2QW       0.131000
     40 H16          6.1250     5.4590    -0.2420 hc         1 2QW       0.041700
     41 H17          7.4260     4.4470     0.3680 hc         1 2QW       0.041700
     42 H18          7.0460     4.4590    -1.3520 hc         1 2QW       0.041700
     43 H19          6.2280     2.9510     1.8770 ha         1 2QW       0.131000
     44 H20          4.5950     1.1690     2.2270 ha         1 2QW       0.143000
     45 H21          1.1940    -3.6780     1.8220 hc         1 2QW       0.046450
     46 H22          0.1780    -3.9460     0.4140 hc         1 2QW       0.046450
     47 H23          3.0190    -4.9950     0.7900 hc         1 2QW       0.040950
     48 H24          1.5480    -5.9460     0.8610 hc         1 2QW       0.040950
     49 H25          2.6790    -6.1540    -1.3650 hc         1 2QW       0.040200
     50 H26          1.0750    -5.4600    -1.5180 hc         1 2QW       0.040200
     51 H27          2.6750    -4.1710    -2.8890 hc         1 2QW       0.040950
     52 H28          3.7100    -3.9170    -1.4970 hc         1 2QW       0.040950
     53 H29         -2.6770    -1.4880    -0.8430 h1         1 2QW       0.064700
     54 H30         -3.5670    -3.1250     0.5390 hn         1 2QW       0.355800
     55 H31         -3.7690    -2.1040     1.7800 hn         1 2QW       0.355800
     56 C4          -1.3870    -1.4810     0.8810 c          1 2QW       0.628100
     57 H4          -2.3380     0.8150     0.0550 hc         1 2QW       0.065700
@<TRIPOS>BOND
     1     1     9 2   
     2     2     3 1   
     3     2    21 1   
     4     2    26 1   
     5     2    27 1   
     6     3     6 1   
     7     3    18 1   
     8     3    28 1   
     9     4     8 1   
    10     4    23 1   
    11     4    29 1   
    12     4    57 1   
    13     5     6 1   
    14     5    30 1   
    15     5    56 1   
    16     6     9 1   
    17     6    31 1   
    18     7    25 1   
    19     7    32 1   
    20     7    33 1   
    21     7    34 1   
    22     8    25 1   
    23     8    35 1   
    24     8    36 1   
    25     9    10 1   
    26    10    11 1   
    27    10    37 1   
    28    11    12 ar  
    29    11    17 ar  
    30    12    13 ar  
    31    12    38 1   
    32    13    14 ar  
    33    13    39 1   
    34    14    15 1   
    35    14    16 ar  
    36    15    40 1   
    37    15    41 1   
    38    15    42 1   
    39    16    17 ar  
    40    16    43 1   
    41    17    44 1   
    42    18    19 1   
    43    18    45 1   
    44    18    46 1   
    45    19    20 1   
    46    19    47 1   
    47    19    48 1   
    48    20    21 1   
    49    20    49 1   
    50    20    50 1   
    51    21    51 1   
    52    21    52 1   
    53    22    56 2   
    54    23    24 1   
    55    23    53 1   
    56    23    56 1   
    57    24    54 1   
    58    24    55 1   
@<TRIPOS>SUBSTRUCTURE
     1 2QW         1 TEMP              0 ****  ****    0 ROOT
