@<TRIPOS>MOLECULE
2QX
  108   113     1     0     0
SMALL
No Charge or Current Charge


@<TRIPOS>ATOM
      1 O1          -9.2600   -45.2600    66.1880 o          1 2QX      -0.590000
      2 C7          -4.4050   -33.4880    78.2430 ca         1 2QX      -0.138300
      3 O2          -1.3580   -37.2060    77.5210 o          1 2QX      -0.537000
      4 C6          -4.7410   -34.1840    79.4200 ca         1 2QX       0.359900
      5 C1          -2.9870   -30.7340    82.2210 ca         1 2QX      -0.103000
      6 C5          -3.8870   -32.5020    80.7840 ca         1 2QX       0.266000
      7 C4          -3.5170   -31.7340    79.6500 ca         1 2QX      -0.080000
      8 C3          -2.8890   -30.4830    79.8050 ca         1 2QX      -0.092000
      9 C2          -2.6250   -29.9840    81.0910 ca         1 2QX      -0.107000
     10 C42         -0.9830   -36.8380    76.4190 c          1 2QX       0.623100
     11 O3          -0.1790   -37.5420    75.5750 os         1 2QX      -0.468100
     12 C43          0.2450   -38.8520    75.9920 c3         1 2QX       0.169900
     13 C41         -2.2390   -34.6610    76.3810 c3         1 2QX       0.119000
     14 C10         -3.6980   -35.1860    76.4610 c3         1 2QX      -0.041400
     15 C9          -4.7080   -34.0840    76.8730 c3         1 2QX      -0.018100
     16 C8          -3.7810   -32.2340    78.3630 ca         1 2QX      -0.060000
     17 N           -4.4910   -33.7080    80.6620 nb         1 2QX      -0.654000
     18 C           -3.6140   -31.9840    82.0640 ca         1 2QX      -0.080000
     19 C11         -4.1250   -35.9130    75.1750 ca         1 2QX      -0.115300
     20 C16         -4.4170   -37.2920    75.2340 ca         1 2QX      -0.085000
     21 C15         -4.7720   -38.0090    74.0760 ca         1 2QX      -0.087300
     22 C14         -4.8440   -37.3410    72.8400 ca         1 2QX      -0.082000
     23 C13         -4.5570   -35.9690    72.7660 ca         1 2QX      -0.144000
     24 C12         -4.1950   -35.2590    73.9220 ca         1 2QX       0.158000
     25 F           -3.9000   -33.9450    73.8060 f          1 2QX      -0.190000
     26 C17         -5.0500   -39.5030    74.1630 c3         1 2QX      -0.031100
     27 C18         -3.7430   -40.3280    74.2150 c3         1 2QX      -0.073400
     28 C19         -3.9470   -41.8490    74.4170 c3         1 2QX      -0.074400
     29 C20         -4.6620   -42.5590    73.2430 c3         1 2QX      -0.076400
     30 C22         -5.4840   -44.7610    72.2730 ca         1 2QX      -0.105300
     31 C27         -6.8790   -44.9350    72.2990 ca         1 2QX      -0.081500
     32 C26         -7.5360   -45.5540    71.2210 ca         1 2QX      -0.146000
     33 C25         -6.8140   -46.0020    70.1000 ca         1 2QX      -0.026000
     34 C24         -5.4130   -45.8290    70.0780 ca         1 2QX      -0.146000
     35 C23         -4.7560   -45.2110    71.1570 ca         1 2QX      -0.081500
     36 C28         -7.1790   -47.0640    67.7830 c          1 2QX       0.592100
     37 O           -6.0550   -46.9230    67.3080 o          1 2QX      -0.590100
     38 C29         -8.3350   -47.7450    66.9890 c3         1 2QX       0.034700
     39 C30         -8.3750   -49.3110    67.1750 c6         1 2QX      -0.062700
     40 C35         -9.6960   -49.9080    66.5960 c6         1 2QX      -0.072400
     41 C34         -9.7440   -51.4480    66.7390 c6         1 2QX      -0.072400
     42 C33         -9.5790   -51.8760    68.2150 c6         1 2QX      -0.076400
     43 C32         -8.2760   -51.2970    68.8140 c6         1 2QX      -0.072400
     44 C31         -8.2190   -49.7560    68.6640 c6         1 2QX      -0.072400
     45 N2          -8.3580   -47.2810    65.5560 n          1 2QX      -0.406800
     46 C40         -7.5490   -48.0410    64.5550 c6         1 2QX       0.099000
     47 C39         -7.1850   -47.2360    63.2910 c6         1 2QX      -0.097400
     48 C38         -8.4250   -46.5010    62.7550 c6         1 2QX      -0.070400
     49 C37         -8.9200   -45.4640    63.7890 c6         1 2QX       0.089500
     50 N3          -8.1670   -44.1710    63.6260 n8         1 2QX      -0.979200
     51 C36         -8.8590   -45.9800    65.2790 c          1 2QX       0.523000
     52 H1          -5.2250   -35.1590    79.3690 h4         1 2QX       0.018100
     53 H2          -2.7840   -30.3490    83.2180 ha         1 2QX       0.116000
     54 H3          -8.5190   -46.7860    69.2780 hn         1 2QX       0.162000
     55 H4          -2.6070   -29.8970    78.9330 ha         1 2QX       0.114000
     56 H5          -2.1410   -29.0170    81.2110 ha         1 2QX       0.115000
     57 H6           0.8840   -39.3100    75.2260 h1         1 2QX       0.048700
     58 H7           0.8200   -38.7990    76.9260 h1         1 2QX       0.048700
     59 H8          -0.6190   -39.5100    76.1520 h1         1 2QX       0.048700
     60 H9          -0.9160   -35.4950    74.9090 hn         1 2QX       0.323500
     61 H10         -2.2050   -33.7660    75.7460 h1         1 2QX       0.067700
     62 H11         -1.8950   -34.3690    77.3820 h1         1 2QX       0.067700
     63 H12         -3.7090   -35.9180    77.2780 hc         1 2QX       0.074700
     64 H13         -4.7270   -33.2910    76.1160 hc         1 2QX       0.059700
     65 H14         -5.7170   -34.5160    76.8780 hc         1 2QX       0.059700
     66 H15         -3.5050   -31.6640    77.4780 ha         1 2QX       0.117000
     67 H16         -3.8910   -32.5590    82.9440 ha         1 2QX       0.131000
     68 H17         -4.3540   -37.8190    76.1840 ha         1 2QX       0.121000
     69 H18         -5.1130   -37.8850    71.9370 ha         1 2QX       0.120000
     70 H19         -4.6050   -35.4540    71.8100 ha         1 2QX       0.133000
     71 H20         -5.6480   -39.7190    75.0580 hc         1 2QX       0.050700
     72 H21         -5.6540   -39.8230    73.3060 hc         1 2QX       0.050700
     73 H22         -3.1710   -40.1570    73.2940 hc         1 2QX       0.043200
     74 H23         -3.1230   -39.9530    75.0390 hc         1 2QX       0.043200
     75 H24         -4.5110   -42.0170    75.3430 hc         1 2QX       0.039200
     76 H25         -2.9630   -42.3110    74.5620 hc         1 2QX       0.039200
     77 H26         -4.1200   -42.3550    72.3110 hc         1 2QX       0.042200
     78 H27         -5.6720   -42.1500    73.1230 hc         1 2QX       0.042200
     79 H28         -5.3010   -44.2930    74.3750 hc         1 2QX       0.045700
     80 H29         -3.7640   -44.5080    73.5560 hc         1 2QX       0.045700
     81 H30         -7.4560   -44.5910    73.1540 ha         1 2QX       0.113500
     82 H31         -8.6160   -45.6800    71.2610 ha         1 2QX       0.130500
     83 H32         -4.8120   -46.1710    69.2420 ha         1 2QX       0.130500
     84 H33         -3.6760   -45.0820    71.1240 ha         1 2QX       0.113500
     85 H34         -9.2600   -47.3830    67.4560 h1         1 2QX       0.088700
     86 H35         -7.5220   -49.7320    66.6250 hc         1 2QX       0.067700
     87 H36         -9.8130   -49.6440    65.5380 hc         1 2QX       0.043700
     88 H37        -10.5590   -49.4680    67.1150 hc         1 2QX       0.043700
     89 H38        -10.6970   -51.8290    66.3460 hc         1 2QX       0.041450
     90 H39         -8.9510   -51.9030    66.1290 hc         1 2QX       0.041450
     91 H40        -10.4420   -51.5290    68.8010 hc         1 2QX       0.040700
     92 H41         -9.5700   -52.9720    68.2890 hc         1 2QX       0.040700
     93 H42         -8.2020   -51.5700    69.8760 hc         1 2QX       0.041450
     94 H43         -7.4080   -51.7490    68.3150 hc         1 2QX       0.041450
     95 H44         -7.2610   -49.4090    69.0730 hc         1 2QX       0.043700
     96 H45         -9.0090   -49.2990    69.2770 hc         1 2QX       0.043700
     97 H46         -8.1170   -48.9290    64.2460 h1         1 2QX       0.060700
     98 H47         -6.6180   -48.3970    65.0200 h1         1 2QX       0.060700
     99 H48         -6.7830   -47.9140    62.5250 hc         1 2QX       0.058700
    100 H49         -6.3860   -46.5180    63.5220 hc         1 2QX       0.058700
    101 H50         -8.2040   -46.0190    61.7930 hc         1 2QX       0.057200
    102 H51         -9.2230   -47.2300    62.5570 hc         1 2QX       0.057200
    103 H52         -9.9820   -45.2550    63.5830 h1         1 2QX       0.077700
    104 H53         -8.4940   -43.5150    64.3470 hn         1 2QX       0.408500
    105 H54         -7.1840   -44.3240    63.8820 hn         1 2QX       0.408500
    106 N1          -7.5460   -46.6240    69.0510 ns         1 2QX      -0.139000
    107 C21         -4.7710   -44.0860    73.4370 c3         1 2QX      -0.026100
    108 N4          -1.3030   -35.6490    75.8300 ns         1 2QX      -0.484900
@<TRIPOS>BOND
     1     1    51 2   
     2     2     4 ar  
     3     2    15 1   
     4     2    16 ar  
     5     3    10 2   
     6     4    17 ar  
     7     4    52 1   
     8     5     9 ar  
     9     5    18 ar  
    10     5    53 1   
    11     6     7 ar  
    12     6    17 ar  
    13     6    18 ar  
    14     7     8 ar  
    15     7    16 ar  
    16     8     9 ar  
    17     8    55 1   
    18     9    56 1   
    19    10    11 1   
    20    10   108 1   
    21    11    12 1   
    22    12    57 1   
    23    12    58 1   
    24    12    59 1   
    25    13    14 1   
    26    13    61 1   
    27    13    62 1   
    28    13   108 1   
    29    14    15 1   
    30    14    19 1   
    31    14    63 1   
    32    15    64 1   
    33    15    65 1   
    34    16    66 1   
    35    18    67 1   
    36    19    20 ar  
    37    19    24 ar  
    38    20    21 ar  
    39    20    68 1   
    40    21    22 ar  
    41    21    26 1   
    42    22    23 ar  
    43    22    69 1   
    44    23    24 ar  
    45    23    70 1   
    46    24    25 1   
    47    26    27 1   
    48    26    71 1   
    49    26    72 1   
    50    27    28 1   
    51    27    73 1   
    52    27    74 1   
    53    28    29 1   
    54    28    75 1   
    55    28    76 1   
    56    29    77 1   
    57    29    78 1   
    58    29   107 1   
    59    30    31 ar  
    60    30    35 ar  
    61    30   107 1   
    62    31    32 ar  
    63    31    81 1   
    64    32    33 ar  
    65    32    82 1   
    66    33    34 ar  
    67    33   106 1   
    68    34    35 ar  
    69    34    83 1   
    70    35    84 1   
    71    36    37 2   
    72    36    38 1   
    73    36   106 1   
    74    38    39 1   
    75    38    45 1   
    76    38    85 1   
    77    39    40 1   
    78    39    44 1   
    79    39    86 1   
    80    40    41 1   
    81    40    87 1   
    82    40    88 1   
    83    41    42 1   
    84    41    89 1   
    85    41    90 1   
    86    42    43 1   
    87    42    91 1   
    88    42    92 1   
    89    43    44 1   
    90    43    93 1   
    91    43    94 1   
    92    44    95 1   
    93    44    96 1   
    94    45    46 1   
    95    45    51 1   
    96    46    47 1   
    97    46    97 1   
    98    46    98 1   
    99    47    48 1   
   100    47    99 1   
   101    47   100 1   
   102    48    49 1   
   103    48   101 1   
   104    48   102 1   
   105    49    50 1   
   106    49    51 1   
   107    49   103 1   
   108    50   104 1   
   109    50   105 1   
   110    54   106 1   
   111    60   108 1   
   112    79   107 1   
   113    80   107 1   
@<TRIPOS>SUBSTRUCTURE
     1 2QX         1 TEMP              0 ****  ****    0 ROOT
