@<TRIPOS>MOLECULE
2QX
  108   113     1     0     0
SMALL
abcg2


@<TRIPOS>ATOM
      1 O1         -10.3320   -46.3960    67.1820 o          1 2QX      -0.590000
      2 C7          -4.0520   -33.1210    77.1900 ca         1 2QX      -0.138300
      3 O2          -1.9230   -37.1060    77.9660 o          1 2QX      -0.537000
      4 C6          -4.7680   -33.5190    78.3490 ca         1 2QX       0.359900
      5 C1          -2.6480   -30.3700    81.1420 ca         1 2QX      -0.103000
      6 C5          -3.7180   -31.9790    79.6900 ca         1 2QX       0.266000
      7 C4          -2.9460   -31.4970    78.5940 ca         1 2QX      -0.080000
      8 C3          -2.0270   -30.4420    78.8080 ca         1 2QX      -0.092000
      9 C2          -1.8800   -29.8920    80.0570 ca         1 2QX      -0.107000
     10 C42         -1.5240   -37.3440    76.8370 c          1 2QX       0.623100
     11 O3          -1.0730   -38.5550    76.4360 os         1 2QX      -0.468100
     12 C43         -1.1430   -39.6130    77.4060 c3         1 2QX       0.169900
     13 C41         -2.1070   -35.1510    75.9020 c3         1 2QX       0.119000
     14 C10         -3.6500   -35.2320    75.8490 c3         1 2QX      -0.041400
     15 C9          -4.2900   -33.8260    75.8850 c3         1 2QX      -0.018100
     16 C8          -3.1430   -32.1030    77.3330 ca         1 2QX      -0.060000
     17 N           -4.6220   -32.9890    79.5400 nb         1 2QX      -0.654000
     18 C           -3.5470   -31.3920    80.9640 ca         1 2QX      -0.080000
     19 C11         -4.1050   -36.0850    74.6890 ca         1 2QX      -0.115300
     20 C16         -4.5960   -37.3680    74.9310 ca         1 2QX      -0.085000
     21 C15         -4.9400   -38.2540    73.9120 ca         1 2QX      -0.087300
     22 C14         -4.8100   -37.8230    72.5930 ca         1 2QX      -0.082000
     23 C13         -4.3430   -36.5440    72.3090 ca         1 2QX      -0.144000
     24 C12         -3.9940   -35.7130    73.3560 ca         1 2QX       0.158000
     25 F           -3.5050   -34.4770    73.0470 f          1 2QX      -0.190000
     26 C17         -5.3610   -39.6630    74.2380 c3         1 2QX      -0.031100
     27 C18         -4.1500   -40.5500    74.5740 c3         1 2QX      -0.073400
     28 C19         -4.5060   -42.0020    74.8930 c3         1 2QX      -0.074400
     29 C20         -5.0950   -42.7700    73.7120 c3         1 2QX      -0.076400
     30 C22         -5.8960   -45.0010    72.8390 ca         1 2QX      -0.105300
     31 C27         -7.2740   -45.1310    72.6640 ca         1 2QX      -0.081500
     32 C26         -7.8010   -45.7620    71.5490 ca         1 2QX      -0.146000
     33 C25         -6.9580   -46.2970    70.5700 ca         1 2QX      -0.026000
     34 C24         -5.5740   -46.1860    70.7340 ca         1 2QX      -0.146000
     35 C23         -5.0660   -45.5380    71.8540 ca         1 2QX      -0.081500
     36 C28         -7.0230   -47.5050    68.3770 c          1 2QX       0.592100
     37 O           -5.8180   -47.5910    68.1630 o          1 2QX      -0.590100
     38 C29         -8.0730   -48.0110    67.3760 c3         1 2QX       0.034700
     39 C30         -7.7230   -49.3720    66.7740 c6         1 2QX      -0.062700
     40 C35         -8.7580   -49.7920    65.7230 c6         1 2QX      -0.072400
     41 C34         -8.4490   -51.1750    65.1480 c6         1 2QX      -0.072400
     42 C33         -8.3460   -52.2290    66.2510 c6         1 2QX      -0.076400
     43 C32         -7.3260   -51.8180    67.3130 c6         1 2QX      -0.072400
     44 C31         -7.6340   -50.4310    67.8810 c6         1 2QX      -0.072400
     45 N2          -8.2740   -46.9620    66.3760 n          1 2QX      -0.406800
     46 C40         -7.2200   -46.6410    65.4090 c6         1 2QX       0.099000
     47 C39         -6.9690   -45.1360    65.3920 c6         1 2QX      -0.097400
     48 C38         -8.2750   -44.3460    65.1730 c6         1 2QX      -0.070400
     49 C37         -9.5180   -45.2500    65.2020 c6         1 2QX       0.089500
     50 N3         -10.7320   -44.4500    65.1980 n8         1 2QX      -0.979200
     51 C36         -9.4260   -46.2490    66.3610 c          1 2QX       0.523000
     52 H1          -5.5040   -34.3140    78.2590 h4         1 2QX       0.018100
     53 H2          -2.5230   -29.9240    82.1210 ha         1 2QX       0.116000
     54 H3          -8.5850   -46.9270    69.4980 hn         1 2QX       0.162000
     55 H4          -1.4420   -30.0810    77.9710 ha         1 2QX       0.114000
     56 H5          -1.1750   -29.0860    80.2160 ha         1 2QX       0.115000
     57 H6          -0.7520   -40.4920    76.9030 h1         1 2QX       0.048700
     58 H7          -0.5370   -39.3750    78.2790 h1         1 2QX       0.048700
     59 H8          -2.1760   -39.7820    77.7090 h1         1 2QX       0.048700
     60 H9          -1.2380   -36.8160    74.9100 hn         1 2QX       0.323500
     61 H10         -1.7350   -34.5560    75.0690 h1         1 2QX       0.067700
     62 H11         -1.8020   -34.6580    76.8240 h1         1 2QX       0.067700
     63 H12         -3.9700   -35.7550    76.7520 hc         1 2QX       0.074700
     64 H13         -3.9080   -33.2190    75.0650 hc         1 2QX       0.059700
     65 H14         -5.3650   -33.9430    75.7310 hc         1 2QX       0.059700
     66 H15         -2.5710   -31.7500    76.4810 ha         1 2QX       0.117000
     67 H16         -4.1410   -31.7690    81.7870 ha         1 2QX       0.131000
     68 H17         -4.6800   -37.6930    75.9630 ha         1 2QX       0.121000
     69 H18         -5.0800   -38.4860    71.7800 ha         1 2QX       0.120000
     70 H19         -4.2420   -36.1910    71.2910 ha         1 2QX       0.133000
     71 H20         -6.0410   -39.6600    75.0940 hc         1 2QX       0.050700
     72 H21         -5.9070   -40.0820    73.3910 hc         1 2QX       0.050700
     73 H22         -3.4470   -40.5220    73.7350 hc         1 2QX       0.043200
     74 H23         -3.6260   -40.1090    75.4270 hc         1 2QX       0.043200
     75 H24         -5.2100   -42.0270    75.7320 hc         1 2QX       0.039200
     76 H25         -3.6010   -42.5170    75.2320 hc         1 2QX       0.039200
     77 H26         -4.4250   -42.6830    72.8490 hc         1 2QX       0.042200
     78 H27         -6.0460   -42.3250    73.4090 hc         1 2QX       0.042200
     79 H28         -6.0100   -44.3380    74.8660 hc         1 2QX       0.045700
     80 H29         -4.3800   -44.7100    74.3250 hc         1 2QX       0.045700
     81 H30         -7.9480   -44.7310    73.4130 ha         1 2QX       0.113500
     82 H31         -8.8750   -45.8440    71.4310 ha         1 2QX       0.130500
     83 H32         -4.9100   -46.6010    69.9950 ha         1 2QX       0.130500
     84 H33         -3.9900   -45.4600    71.9670 ha         1 2QX       0.113500
     85 H34         -9.0310   -48.1040    67.8860 h1         1 2QX       0.088700
     86 H35         -6.7420   -49.3030    66.2920 hc         1 2QX       0.067700
     87 H36         -8.8040   -49.0550    64.9190 hc         1 2QX       0.043700
     88 H37         -9.7490   -49.8100    66.1910 hc         1 2QX       0.043700
     89 H38         -9.2200   -51.4570    64.4260 hc         1 2QX       0.041450
     90 H39         -7.5020   -51.1310    64.6000 hc         1 2QX       0.041450
     91 H40         -9.3280   -52.3500    66.7250 hc         1 2QX       0.040700
     92 H41         -8.0780   -53.1990    65.8250 hc         1 2QX       0.040700
     93 H42         -7.3010   -52.5530    68.1220 hc         1 2QX       0.041450
     94 H43         -6.3240   -51.8070    66.8690 hc         1 2QX       0.041450
     95 H44         -6.8740   -50.1510    68.6140 hc         1 2QX       0.043700
     96 H45         -8.5940   -50.4630    68.4110 hc         1 2QX       0.043700
     97 H46         -7.5070   -46.9990    64.4150 h1         1 2QX       0.060700
     98 H47         -6.3200   -47.1720    65.7030 h1         1 2QX       0.060700
     99 H48         -6.2420   -44.9100    64.6120 hc         1 2QX       0.058700
    100 H49         -6.5160   -44.8590    66.3460 hc         1 2QX       0.058700
    101 H50         -8.3920   -43.5860    65.9490 hc         1 2QX       0.057200
    102 H51         -8.2650   -43.8230    64.2170 hc         1 2QX       0.057200
    103 H52         -9.5180   -45.8550    64.2890 h1         1 2QX       0.077700
    104 H53        -11.5430   -45.0600    65.2290 hn         1 2QX       0.408500
    105 H54        -10.7720   -43.8960    66.0490 hn         1 2QX       0.408500
    106 N1          -7.5750   -46.9280    69.4750 ns         1 2QX      -0.139000
    107 C21         -5.3260   -44.2550    74.0170 c3         1 2QX      -0.026100
    108 N4          -1.4550   -36.4490    75.8280 ns         1 2QX      -0.484900
@<TRIPOS>BOND
     1     1    51 2   
     2     2     4 ar  
     3     2    15 1   
     4     2    16 ar  
     5     3    10 2   
     6     4    17 ar  
     7     4    52 1   
     8     5     9 ar  
     9     5    18 ar  
    10     5    53 1   
    11     6     7 ar  
    12     6    17 ar  
    13     6    18 ar  
    14     7     8 ar  
    15     7    16 ar  
    16     8     9 ar  
    17     8    55 1   
    18     9    56 1   
    19    10    11 1   
    20    10   108 1   
    21    11    12 1   
    22    12    57 1   
    23    12    58 1   
    24    12    59 1   
    25    13    14 1   
    26    13    61 1   
    27    13    62 1   
    28    13   108 1   
    29    14    15 1   
    30    14    19 1   
    31    14    63 1   
    32    15    64 1   
    33    15    65 1   
    34    16    66 1   
    35    18    67 1   
    36    19    20 ar  
    37    19    24 ar  
    38    20    21 ar  
    39    20    68 1   
    40    21    22 ar  
    41    21    26 1   
    42    22    23 ar  
    43    22    69 1   
    44    23    24 ar  
    45    23    70 1   
    46    24    25 1   
    47    26    27 1   
    48    26    71 1   
    49    26    72 1   
    50    27    28 1   
    51    27    73 1   
    52    27    74 1   
    53    28    29 1   
    54    28    75 1   
    55    28    76 1   
    56    29    77 1   
    57    29    78 1   
    58    29   107 1   
    59    30    31 ar  
    60    30    35 ar  
    61    30   107 1   
    62    31    32 ar  
    63    31    81 1   
    64    32    33 ar  
    65    32    82 1   
    66    33    34 ar  
    67    33   106 1   
    68    34    35 ar  
    69    34    83 1   
    70    35    84 1   
    71    36    37 2   
    72    36    38 1   
    73    36   106 1   
    74    38    39 1   
    75    38    45 1   
    76    38    85 1   
    77    39    40 1   
    78    39    44 1   
    79    39    86 1   
    80    40    41 1   
    81    40    87 1   
    82    40    88 1   
    83    41    42 1   
    84    41    89 1   
    85    41    90 1   
    86    42    43 1   
    87    42    91 1   
    88    42    92 1   
    89    43    44 1   
    90    43    93 1   
    91    43    94 1   
    92    44    95 1   
    93    44    96 1   
    94    45    46 1   
    95    45    51 1   
    96    46    47 1   
    97    46    97 1   
    98    46    98 1   
    99    47    48 1   
   100    47    99 1   
   101    47   100 1   
   102    48    49 1   
   103    48   101 1   
   104    48   102 1   
   105    49    50 1   
   106    49    51 1   
   107    49   103 1   
   108    50   104 1   
   109    50   105 1   
   110    54   106 1   
   111    60   108 1   
   112    79   107 1   
   113    80   107 1   
@<TRIPOS>SUBSTRUCTURE
     1 2QX         1 TEMP              0 ****  ****    0 ROOT
