@<TRIPOS>MOLECULE
2R2
   48    50     1     0     0
SMALL
No Charge or Current Charge


@<TRIPOS>ATOM
      1 FAF         10.1320   -23.1650    13.1630 f          1 2R2      -0.106667
      2 CAD          9.6730   -21.9020    13.0070 c3         1 2R2       0.351300
      3 FAG          8.3360   -21.9670    13.2060 f          1 2R2      -0.106667
      4 FAE         10.1970   -21.1800    14.0230 f          1 2R2      -0.106667
      5 CAC         10.0300   -21.2960    11.6360 ca         1 2R2      -0.221300
      6 CAH         10.9570   -21.9840    10.8100 ca         1 2R2       0.045000
      7 CAB          9.4630   -20.0660    11.1740 ca         1 2R2       0.074700
      8 CAA          8.4950   -19.2570    12.0510 c3         1 2R2      -0.070800
      9 CAZ          9.8110   -19.5870     9.8800 ca         1 2R2      -0.154200
     10 NBA          9.2080   -18.3390     9.3300 no         1 2R2       0.676200
     11 OBB          7.9830   -18.3160     9.1610 o          1 2R2      -0.387000
     12 OBC          9.9710   -17.4230     9.0010 o          1 2R2      -0.387000
     13 CAY         10.7360   -20.3170     9.1010 ca         1 2R2      -0.159000
     14 CAI         11.3040   -21.4870     9.5480 ca         1 2R2       0.059400
     15 NAJ         12.1980   -22.1290     8.6970 nc         1 2R2      -0.501100
     16 SAX         11.2960   -19.9150     7.4820 ss         1 2R2       0.256800
     17 CAK         12.2920   -21.3910     7.5660 cd         1 2R2       0.302200
     18 CAL         13.1400   -21.7140     6.3470 c          1 2R2       0.547800
     19 OAW         13.0960   -20.9910     5.3530 o          1 2R2      -0.585100
     20 NAM         14.0050   -22.8600     6.3150 n          1 2R2      -0.387800
     21 CAV         14.1250   -23.8600     7.4350 c6         1 2R2       0.062000
     22 CAU         15.2380   -24.9370     7.3010 c6         1 2R2       0.151300
     23 NAP         15.3510   -25.4900     5.9280 n3         1 2R2      -0.710600
     24 CAO         15.6910   -24.3730     5.0150 c6         1 2R2       0.151300
     25 CAN         14.6050   -23.2620     4.9930 c6         1 2R2       0.062000
     26 CAQ         14.1780   -26.3030     5.4740 c3         1 2R2       0.167800
     27 CAR         13.8490   -27.5710     6.3120 c3         1 2R2       0.160600
     28 OAS         14.9680   -28.4800     6.2730 os         1 2R2      -0.447000
     29 CAT         14.7800   -29.6890     7.0260 c3         1 2R2       0.143900
     30 H1          11.4180   -22.9140    11.1340 ha         1 2R2       0.160000
     31 H2           7.4590   -19.5750    11.8830 hc         1 2R2       0.075367
     32 H3           8.7070   -19.3570    13.1190 hc         1 2R2       0.075367
     33 H4           8.5500   -18.1810    11.8500 hc         1 2R2       0.075367
     34 H5          14.3290   -23.3290     8.3740 h1         1 2R2       0.061450
     35 H6          13.1600   -24.3740     7.5440 h1         1 2R2       0.061450
     36 H7          16.1940   -24.4710     7.5840 h1         1 2R2       0.067950
     37 H8          15.0640   -25.7320     8.0400 h1         1 2R2       0.067950
     38 H10         15.8500   -24.7400     3.9900 h1         1 2R2       0.067950
     39 H11         16.6420   -23.9160     5.3280 h1         1 2R2       0.067950
     40 H12         15.0420   -22.3780     4.5080 h1         1 2R2       0.061450
     41 H13         13.7850   -23.5990     4.3440 h1         1 2R2       0.061450
     42 H14         14.3470   -26.6320     4.4400 h1         1 2R2       0.040700
     43 H15         13.2740   -25.6800     5.4550 h1         1 2R2       0.040700
     44 H16         12.9560   -28.0500     5.8890 h1         1 2R2       0.022200
     45 H17         13.6160   -27.2830     7.3460 h1         1 2R2       0.022200
     46 H18         15.6680   -30.3290     6.9490 h1         1 2R2       0.029367
     47 H19         14.6110   -29.4640     8.0880 h1         1 2R2       0.029367
     48 H20         13.9180   -30.2540     6.6490 h1         1 2R2       0.029367
@<TRIPOS>BOND
     1     1     2 1   
     2     2     3 1   
     3     2     4 1   
     4     2     5 1   
     5     5     6 ar  
     6     5     7 ar  
     7     6    14 ar  
     8     6    30 1   
     9     7     8 1   
    10     7     9 ar  
    11     8    31 1   
    12     8    32 1   
    13     8    33 1   
    14     9    10 1   
    15     9    13 ar  
    16    10    11 1   
    17    10    12 1   
    18    13    14 ar  
    19    13    16 1   
    20    14    15 1   
    21    15    17 2   
    22    16    17 1   
    23    17    18 1   
    24    18    19 2   
    25    18    20 1   
    26    20    21 1   
    27    20    25 1   
    28    21    22 1   
    29    21    34 1   
    30    21    35 1   
    31    22    23 1   
    32    22    36 1   
    33    22    37 1   
    34    23    24 1   
    35    23    26 1   
    36    24    25 1   
    37    24    38 1   
    38    24    39 1   
    39    25    40 1   
    40    25    41 1   
    41    26    27 1   
    42    26    42 1   
    43    26    43 1   
    44    27    28 1   
    45    27    44 1   
    46    27    45 1   
    47    28    29 1   
    48    29    46 1   
    49    29    47 1   
    50    29    48 1   
@<TRIPOS>SUBSTRUCTURE
     1 2R2         1 TEMP              0 ****  ****    0 ROOT
