@<TRIPOS>MOLECULE
2R2
   48    50     1     0     0
SMALL
abcg2


@<TRIPOS>ATOM
      1 FAF         11.4640   -22.0610    13.6480 f          1 2R2      -0.106667
      2 CAD         10.5560   -21.1290    13.3030 c3         1 2R2       0.351300
      3 FAG          9.3610   -21.5800    13.7440 f          1 2R2      -0.106667
      4 FAE         10.8510   -20.0260    14.0330 f          1 2R2      -0.106667
      5 CAC         10.5600   -20.8520    11.8160 ca         1 2R2      -0.221300
      6 CAH         11.5550   -21.4570    11.0660 ca         1 2R2       0.045000
      7 CAB          9.5780   -20.0110    11.2390 ca         1 2R2       0.074700
      8 CAA          8.5370   -19.3370    12.0920 c3         1 2R2      -0.070800
      9 CAZ          9.6550   -19.8170     9.8530 ca         1 2R2      -0.154200
     10 NBA          8.6450   -19.0500     9.1280 no         1 2R2       0.676200
     11 OBB          7.5240   -18.9370     9.5980 o          1 2R2      -0.387000
     12 OBC          8.9720   -18.5810     8.0400 o          1 2R2      -0.387000
     13 CAY         10.6910   -20.3670     9.0880 ca         1 2R2      -0.159000
     14 CAI         11.6290   -21.2180     9.7000 ca         1 2R2       0.059400
     15 NAJ         12.5680   -21.7650     8.8490 nc         1 2R2      -0.501100
     16 SAX         11.0540   -20.2210     7.4060 ss         1 2R2       0.256800
     17 CAK         12.3800   -21.3490     7.6410 cd         1 2R2       0.302200
     18 CAL         13.2830   -21.6480     6.4780 c          1 2R2       0.547800
     19 OAW         13.7840   -20.6830     5.8910 o          1 2R2      -0.585100
     20 NAM         13.4980   -22.9310     6.1640 n          1 2R2      -0.387800
     21 CAV         12.8060   -24.0900     6.7340 c6         1 2R2       0.062000
     22 CAU         13.8300   -25.0690     7.3130 c6         1 2R2       0.151300
     23 NAP         14.8560   -25.4690     6.3490 n3         1 2R2      -0.710600
     24 CAO         15.4870   -24.2860     5.7690 c6         1 2R2       0.151300
     25 CAN         14.4950   -23.2910     5.1540 c6         1 2R2       0.062000
     26 CAQ         14.4010   -26.4420     5.3530 c3         1 2R2       0.167800
     27 CAR         14.2470   -27.8430     5.9100 c3         1 2R2       0.160600
     28 OAS         15.5160   -28.3540     6.2910 os         1 2R2      -0.447000
     29 CAT         15.4290   -29.6650     6.8210 c3         1 2R2       0.143900
     30 H1          12.2820   -22.1110    11.5250 ha         1 2R2       0.160000
     31 H2           7.6040   -19.9020    12.0750 hc         1 2R2       0.075367
     32 H3           8.8670   -19.2540    13.1210 hc         1 2R2       0.075367
     33 H4           8.3170   -18.3390    11.7240 hc         1 2R2       0.075367
     34 H5          12.1060   -23.7740     7.5000 h1         1 2R2       0.061450
     35 H6          12.2350   -24.5620     5.9300 h1         1 2R2       0.061450
     36 H7          14.3250   -24.5920     8.1630 h1         1 2R2       0.067950
     37 H8          13.3110   -25.9500     7.6870 h1         1 2R2       0.067950
     38 H10         16.2030   -24.5970     5.0080 h1         1 2R2       0.067950
     39 H11         16.0380   -23.7700     6.5610 h1         1 2R2       0.067950
     40 H12         15.0030   -22.3880     4.8260 h1         1 2R2       0.061450
     41 H13         13.9800   -23.7320     4.2960 h1         1 2R2       0.061450
     42 H14         15.1450   -26.4720     4.5560 h1         1 2R2       0.040700
     43 H15         13.4460   -26.1650     4.8840 h1         1 2R2       0.040700
     44 H16         13.8050   -28.4830     5.1350 h1         1 2R2       0.022200
     45 H17         13.5680   -27.8580     6.7720 h1         1 2R2       0.022200
     46 H18         16.4380   -29.9790     7.0850 h1         1 2R2       0.029367
     47 H19         14.7980   -29.6890     7.7170 h1         1 2R2       0.029367
     48 H20         15.0150   -30.3640     6.0840 h1         1 2R2       0.029367
@<TRIPOS>BOND
     1     1     2 1   
     2     2     3 1   
     3     2     4 1   
     4     2     5 1   
     5     5     6 ar  
     6     5     7 ar  
     7     6    14 ar  
     8     6    30 1   
     9     7     8 1   
    10     7     9 ar  
    11     8    31 1   
    12     8    32 1   
    13     8    33 1   
    14     9    10 1   
    15     9    13 ar  
    16    10    11 1   
    17    10    12 1   
    18    13    14 ar  
    19    13    16 1   
    20    14    15 1   
    21    15    17 2   
    22    16    17 1   
    23    17    18 1   
    24    18    19 2   
    25    18    20 1   
    26    20    21 1   
    27    20    25 1   
    28    21    22 1   
    29    21    34 1   
    30    21    35 1   
    31    22    23 1   
    32    22    36 1   
    33    22    37 1   
    34    23    24 1   
    35    23    26 1   
    36    24    25 1   
    37    24    38 1   
    38    24    39 1   
    39    25    40 1   
    40    25    41 1   
    41    26    27 1   
    42    26    42 1   
    43    26    43 1   
    44    27    28 1   
    45    27    44 1   
    46    27    45 1   
    47    28    29 1   
    48    29    46 1   
    49    29    47 1   
    50    29    48 1   
@<TRIPOS>SUBSTRUCTURE
     1 2R2         1 TEMP              0 ****  ****    0 ROOT
