@<TRIPOS>MOLECULE
2R4
   49    54     1     0     0
SMALL
No Charge or Current Charge


@<TRIPOS>ATOM
      1 O01         -5.3650     0.0210    -0.8220 o          1 2R4      -0.574100
      2 C02         -4.1920     0.0520    -0.4810 c          1 2R4       0.614900
      3 C03         -3.4070     1.2970    -0.3910 ca         1 2R4      -0.213600
      4 C04         -2.1300     1.2160     0.1760 ca         1 2R4       0.170100
      5 C05         -1.2950     2.3610     0.2570 cp         1 2R4      -0.077000
      6 C06          0.0700     2.2840     0.8550 cp         1 2R4      -0.003000
      7 C07          0.4290     3.0430     1.9980 ca         1 2R4      -0.085000
      8 C08          1.7180     2.9320     2.5770 ca         1 2R4      -0.115000
      9 C09          2.6890     2.0610     2.0310 ca         1 2R4      -0.069000
     10 C10          2.3660     1.3040     0.8850 cp         1 2R4      -0.052000
     11 C11          1.0880     1.4510     0.3500 ca         1 2R4      -0.123000
     12 S12          0.9170     0.4510    -1.1270 ss         1 2R4       0.187000
     13 C13          2.5800    -0.2140    -0.9880 ca         1 2R4      -0.147000
     14 C14          3.2100     0.3460     0.1380 cp         1 2R4      -0.050000
     15 C15          4.5300    -0.0510     0.4400 ca         1 2R4      -0.073000
     16 C16          5.1810    -0.9910    -0.3870 ca         1 2R4      -0.114000
     17 C17          4.5220    -1.5370    -1.5120 ca         1 2R4      -0.097000
     18 C18          3.2050    -1.1480    -1.8240 ca         1 2R4      -0.086000
     19 C19         -1.7940     3.5910    -0.2310 ca         1 2R4      -0.049000
     20 C20         -3.0790     3.6730    -0.7950 ca         1 2R4      -0.146000
     21 C21         -3.8870     2.5270    -0.8810 ca         1 2R4      -0.021000
     22 O22         -1.6600     0.0600     0.7730 os         1 2R4      -0.242200
     23 C23         -2.1390    -1.1200     0.2420 cc         1 2R4       0.423100
     24 N24         -1.3530    -2.2410     0.4270 nh         1 2R4      -0.683400
     25 C25         -1.7260    -3.5960    -0.1030 c6         1 2R4       0.189300
     26 C26         -0.4880    -4.4050    -0.5870 c6         1 2R4       0.133600
     27 O27          0.5470    -4.4250     0.4220 os         1 2R4      -0.442000
     28 C28          1.0180    -3.1000     0.7520 c6         1 2R4       0.133600
     29 C29         -0.1390    -2.2290     1.3160 c6         1 2R4       0.189300
     30 C30         -3.4370    -1.1520    -0.2020 cd         1 2R4      -0.523200
     31 H071        -0.3020     3.7110     2.4460 ha         1 2R4       0.120000
     32 H081         1.9630     3.5220     3.4580 ha         1 2R4       0.119000
     33 H091         3.6730     1.9840     2.4860 ha         1 2R4       0.118000
     34 H151         5.0450     0.3620     1.3040 ha         1 2R4       0.117000
     35 H161         6.1980    -1.2990    -0.1560 ha         1 2R4       0.117000
     36 H171         5.0350    -2.2610    -2.1410 ha         1 2R4       0.116000
     37 H181         2.6880    -1.5630    -2.6860 ha         1 2R4       0.124000
     38 H191        -1.1750     4.4840    -0.1750 ha         1 2R4       0.123000
     39 H201        -3.4470     4.6260    -1.1710 ha         1 2R4       0.124000
     40 H211        -4.8770     2.5960    -1.3290 ha         1 2R4       0.142000
     41 H252        -2.2450    -4.1710     0.6770 h1         1 2R4       0.069700
     42 H251        -2.4150    -3.5110    -0.9550 h1         1 2R4       0.069700
     43 H261        -0.7860    -5.4370    -0.8190 h1         1 2R4       0.059700
     44 H262        -0.0860    -3.9540    -1.5060 h1         1 2R4       0.059700
     45 H282         1.8240    -3.1760     1.4950 h1         1 2R4       0.059700
     46 H281         1.4330    -2.6300    -0.1500 h1         1 2R4       0.059700
     47 H291         0.2500    -1.2110     1.4610 h1         1 2R4       0.069700
     48 H292        -0.4100    -2.6060     2.3130 h1         1 2R4       0.069700
     49 H301        -3.9620    -2.0680    -0.4220 ha         1 2R4       0.209000
@<TRIPOS>BOND
     1     1     2 2   
     2     2     3 1   
     3     2    30 1   
     4     3     4 ar  
     5     3    21 ar  
     6     4     5 ar  
     7     4    22 1   
     8     5     6 1   
     9     5    19 ar  
    10     6     7 ar  
    11     6    11 ar  
    12     7     8 ar  
    13     7    31 1   
    14     8     9 ar  
    15     8    32 1   
    16     9    10 ar  
    17     9    33 1   
    18    10    11 ar  
    19    10    14 1   
    20    11    12 1   
    21    12    13 1   
    22    13    14 ar  
    23    13    18 ar  
    24    14    15 ar  
    25    15    16 ar  
    26    15    34 1   
    27    16    17 ar  
    28    16    35 1   
    29    17    18 ar  
    30    17    36 1   
    31    18    37 1   
    32    19    20 ar  
    33    19    38 1   
    34    20    21 ar  
    35    20    39 1   
    36    21    40 1   
    37    22    23 1   
    38    23    24 1   
    39    23    30 2   
    40    24    25 1   
    41    24    29 1   
    42    25    26 1   
    43    25    41 1   
    44    25    42 1   
    45    26    27 1   
    46    26    43 1   
    47    26    44 1   
    48    27    28 1   
    49    28    29 1   
    50    28    45 1   
    51    28    46 1   
    52    29    47 1   
    53    29    48 1   
    54    30    49 1   
@<TRIPOS>SUBSTRUCTURE
     1 2R4         1 TEMP              0 ****  ****    0 ROOT
