@<TRIPOS>MOLECULE
2R4
   49    54     1     0     0
SMALL
abcg2


@<TRIPOS>ATOM
      1 O01         -5.1550     0.0390    -1.3520 o          1 2R4      -0.574100
      2 C02         -4.0390    -0.0000    -0.8310 c          1 2R4       0.614900
      3 C03         -3.2660     1.2390    -0.6020 ca         1 2R4      -0.213600
      4 C04         -2.0230     1.1560     0.0070 ca         1 2R4       0.170100
      5 C05         -1.2200     2.2760     0.2360 cp         1 2R4      -0.077000
      6 C06          0.1070     2.1470     0.8730 cp         1 2R4      -0.003000
      7 C07          0.3910     2.8030     2.0630 ca         1 2R4      -0.085000
      8 C08          1.6390     2.6910     2.6750 ca         1 2R4      -0.115000
      9 C09          2.6330     1.9150     2.1100 ca         1 2R4      -0.069000
     10 C10          2.3830     1.2510     0.9100 cp         1 2R4      -0.052000
     11 C11          1.1270     1.3820     0.3020 ca         1 2R4      -0.123000
     12 S12          1.0280     0.5200    -1.2120 ss         1 2R4       0.187000
     13 C13          2.6640    -0.0560    -1.0350 ca         1 2R4      -0.147000
     14 C14          3.2710     0.4070     0.1400 cp         1 2R4      -0.050000
     15 C15          4.5820     0.0240     0.4240 ca         1 2R4      -0.073000
     16 C16          5.2530    -0.8080    -0.4530 ca         1 2R4      -0.114000
     17 C17          4.6300    -1.2640    -1.6180 ca         1 2R4      -0.097000
     18 C18          3.3320    -0.8930    -1.9210 ca         1 2R4      -0.086000
     19 C19         -1.7300     3.5110    -0.1390 ca         1 2R4      -0.049000
     20 C20         -2.9820     3.6250    -0.7380 ca         1 2R4      -0.146000
     21 C21         -3.7410     2.4960    -0.9750 ca         1 2R4      -0.021000
     22 O22         -1.5240    -0.0300     0.4230 os         1 2R4      -0.242200
     23 C23         -2.1500    -1.1850     0.1770 cc         1 2R4       0.423100
     24 N24         -1.4340    -2.2390     0.5800 nh         1 2R4      -0.683400
     25 C25         -1.8750    -3.6120     0.4030 c6         1 2R4       0.189300
     26 C26         -0.7810    -4.4090    -0.2890 c6         1 2R4       0.133600
     27 O27          0.4410    -4.3340     0.4060 os         1 2R4      -0.442000
     28 C28          0.8750    -3.0000     0.5400 c6         1 2R4       0.133600
     29 C29         -0.1510    -2.1510     1.2700 c6         1 2R4       0.189300
     30 C30         -3.3920    -1.2000    -0.4190 cd         1 2R4      -0.523200
     31 H071        -0.3800     3.4030     2.5310 ha         1 2R4       0.120000
     32 H081         1.8240     3.2110     3.6050 ha         1 2R4       0.119000
     33 H091         3.5990     1.8310     2.5910 ha         1 2R4       0.118000
     34 H151         5.0710     0.3720     1.3260 ha         1 2R4       0.117000
     35 H161         6.2680    -1.1110    -0.2350 ha         1 2R4       0.117000
     36 H171         5.1680    -1.9170    -2.2930 ha         1 2R4       0.116000
     37 H181         2.8510    -1.2490    -2.8220 ha         1 2R4       0.124000
     38 H191        -1.1310     4.3970     0.0270 ha         1 2R4       0.123000
     39 H201        -3.3520     4.5990    -1.0240 ha         1 2R4       0.124000
     40 H211        -4.7100     2.5710    -1.4510 ha         1 2R4       0.142000
     41 H252        -2.1050    -4.0440     1.3820 h1         1 2R4       0.069700
     42 H251        -2.7770    -3.6620    -0.1990 h1         1 2R4       0.069700
     43 H261        -1.0710    -5.4590    -0.3350 h1         1 2R4       0.059700
     44 H262        -0.6670    -4.0420    -1.3190 h1         1 2R4       0.059700
     45 H282         1.8060    -3.0130     1.1080 h1         1 2R4       0.059700
     46 H281         1.0820    -2.5530    -0.4420 h1         1 2R4       0.059700
     47 H291         0.2030    -1.1270     1.3280 h1         1 2R4       0.069700
     48 H292        -0.2820    -2.5150     2.2950 h1         1 2R4       0.069700
     49 H301        -3.9060    -2.1340    -0.5880 ha         1 2R4       0.209000
@<TRIPOS>BOND
     1     1     2 2   
     2     2     3 1   
     3     2    30 1   
     4     3     4 ar  
     5     3    21 ar  
     6     4     5 ar  
     7     4    22 1   
     8     5     6 1   
     9     5    19 ar  
    10     6     7 ar  
    11     6    11 ar  
    12     7     8 ar  
    13     7    31 1   
    14     8     9 ar  
    15     8    32 1   
    16     9    10 ar  
    17     9    33 1   
    18    10    11 ar  
    19    10    14 1   
    20    11    12 1   
    21    12    13 1   
    22    13    14 ar  
    23    13    18 ar  
    24    14    15 ar  
    25    15    16 ar  
    26    15    34 1   
    27    16    17 ar  
    28    16    35 1   
    29    17    18 ar  
    30    17    36 1   
    31    18    37 1   
    32    19    20 ar  
    33    19    38 1   
    34    20    21 ar  
    35    20    39 1   
    36    21    40 1   
    37    22    23 1   
    38    23    24 1   
    39    23    30 2   
    40    24    25 1   
    41    24    29 1   
    42    25    26 1   
    43    25    41 1   
    44    25    42 1   
    45    26    27 1   
    46    26    43 1   
    47    26    44 1   
    48    27    28 1   
    49    28    29 1   
    50    28    45 1   
    51    28    46 1   
    52    29    47 1   
    53    29    48 1   
    54    30    49 1   
@<TRIPOS>SUBSTRUCTURE
     1 2R4         1 TEMP              0 ****  ****    0 ROOT
