@<TRIPOS>MOLECULE
2R5
   69    72     1     0     0
SMALL
No Charge or Current Charge


@<TRIPOS>ATOM
      1 C01          2.4470     4.2850    -0.6340 c3         1 2R5      -0.024800
      2 C02          1.3170     3.2720    -0.4610 ca         1 2R5      -0.293300
      3 C03          1.5450     1.8960    -0.2750 ca         1 2R5       0.426900
      4 N04          2.8420     1.4020    -0.2090 nu         1 2R5      -0.939900
      5 C05          3.4080     0.1180    -0.1990 ca         1 2R5       0.289000
      6 C06          2.7730    -0.9930    -0.7910 ca         1 2R5      -0.072000
      7 C07          3.3850    -2.2600    -0.7750 ca         1 2R5      -0.111000
      8 C08          4.6420    -2.4310    -0.1730 ca         1 2R5      -0.040000
      9 C09          5.2970    -1.3260     0.4080 ca         1 2R5      -0.235500
     10 C10          4.6760    -0.0580     0.3890 ca         1 2R5      -0.071000
     11 S11          6.9220    -1.5160     1.1650 sy         1 2R5       1.159600
     12 O12          6.8820    -0.9040     2.4940 o          1 2R5      -0.547500
     13 O13          7.4540    -2.8640     0.9620 o          1 2R5      -0.547500
     14 N14          7.8540    -0.4420     0.2760 n7         1 2R5      -0.922300
     15 C15          8.4430    -0.7450    -1.0450 c3         1 2R5       0.258200
     16 C16          7.3900    -1.3020    -2.0340 c3         1 2R5      -0.108433
     17 C17          8.9520     0.6160    -1.5720 c3         1 2R5      -0.108433
     18 C18          9.6500    -1.7070    -0.9080 c3         1 2R5      -0.108433
     19 N19          0.5360     1.0280    -0.1110 nb         1 2R5      -0.319000
     20 C20         -0.7030     1.5350    -0.1440 ca         1 2R5       0.421900
     21 N21         -1.7090     0.5900    -0.0060 nu         1 2R5      -0.928900
     22 C22         -3.1030     0.6450     0.1240 ca         1 2R5       0.286000
     23 C23         -3.8610    -0.4720    -0.2730 ca         1 2R5      -0.113000
     24 C24         -5.2640    -0.4730    -0.1520 ca         1 2R5      -0.141000
     25 C25         -5.9260     0.6540     0.3820 ca         1 2R5       0.113100
     26 O26         -7.2960     0.7140     0.5280 os         1 2R5      -0.350100
     27 C27         -8.1580    -0.3720     0.1380 c3         1 2R5       0.141600
     28 C28         -9.6070     0.0440     0.4400 c3         1 2R5       0.066600
     29 N29        -10.5810    -0.9960     0.0790 na         1 2R5       0.017000
     30 C30        -11.0160    -2.0140     0.9310 cc         1 2R5      -0.200500
     31 C31        -11.9030    -2.7610     0.2060 cd         1 2R5      -0.177500
     32 C32        -12.0140    -2.2090    -1.0830 cd         1 2R5      -0.177500
     33 C33        -11.1980    -1.1160    -1.1690 cc         1 2R5      -0.200500
     34 C34         -5.1720     1.7640     0.7940 ca         1 2R5      -0.141000
     35 C35         -3.7700     1.7600     0.6700 ca         1 2R5      -0.113000
     36 N36         -1.0400     2.8210    -0.3390 nb         1 2R5      -0.257000
     37 C37         -0.0250     3.6900    -0.4920 ca         1 2R5       0.170900
     38 H1           3.0690     4.3420     0.2670 hc         1 2R5       0.040367
     39 H2           3.0950     4.0170    -1.4780 hc         1 2R5       0.040367
     40 H3           2.0590     5.2920    -0.8290 hc         1 2R5       0.040367
     41 H4           3.5230     2.1470    -0.0780 hn         1 2R5       0.502000
     42 H5           1.8140    -0.8790    -1.2850 ha         1 2R5       0.143000
     43 H6           2.8850    -3.1090    -1.2350 ha         1 2R5       0.119000
     44 H7           5.1060    -3.4170    -0.1700 ha         1 2R5       0.143000
     45 H8           5.1830     0.7940     0.8340 ha         1 2R5       0.122000
     46 H9           8.6050    -0.2580     0.9360 hn         1 2R5       0.492000
     47 H10          7.0590    -2.3060    -1.7480 hc         1 2R5       0.048033
     48 H11          6.5140    -0.6460    -2.0880 hc         1 2R5       0.048033
     49 H12          7.8150    -1.3770    -3.0420 hc         1 2R5       0.048033
     50 H13          8.1270     1.3340    -1.6600 hc         1 2R5       0.048033
     51 H14          9.7050     1.0450    -0.9000 hc         1 2R5       0.048033
     52 H15          9.4090     0.5070    -2.5630 hc         1 2R5       0.048033
     53 H16         10.2090    -1.7550    -1.8500 hc         1 2R5       0.048033
     54 H17         10.3420    -1.3680    -0.1270 hc         1 2R5       0.048033
     55 H18          9.3390    -2.7300    -0.6730 hc         1 2R5       0.048033
     56 H19         -1.3420    -0.3570    -0.0840 hn         1 2R5       0.507000
     57 H20         -3.3630    -1.3450    -0.6860 ha         1 2R5       0.131000
     58 H21         -5.8150    -1.3520    -0.4750 ha         1 2R5       0.123500
     59 H22         -8.0560    -0.5830    -0.9350 h1         1 2R5       0.045700
     60 H23         -7.9160    -1.2830     0.7010 h1         1 2R5       0.045700
     61 H24         -9.7060     0.2630     1.5100 h1         1 2R5       0.072200
     62 H25         -9.8460     0.9580    -0.1170 h1         1 2R5       0.072200
     63 H26        -10.6660    -2.1180     1.9520 h4         1 2R5       0.143000
     64 H27        -12.4330    -3.6380     0.5680 ha         1 2R5       0.132000
     65 H28        -12.6450    -2.5880    -1.8830 ha         1 2R5       0.132000
     66 H29        -11.0070    -0.4310    -1.9870 h4         1 2R5       0.143000
     67 H30         -5.6760     2.6290     1.2170 ha         1 2R5       0.123500
     68 H31         -3.2110     2.6220     1.0200 ha         1 2R5       0.131000
     69 H32         -0.2960     4.7340    -0.6400 h4         1 2R5       0.021100
@<TRIPOS>BOND
     1     1     2 1   
     2     1    38 1   
     3     1    39 1   
     4     1    40 1   
     5     2     3 ar  
     6     2    37 ar  
     7     3     4 1   
     8     3    19 ar  
     9     4     5 1   
    10     4    41 1   
    11     5     6 ar  
    12     5    10 ar  
    13     6     7 ar  
    14     6    42 1   
    15     7     8 ar  
    16     7    43 1   
    17     8     9 ar  
    18     8    44 1   
    19     9    10 ar  
    20     9    11 1   
    21    10    45 1   
    22    11    12 2   
    23    11    13 2   
    24    11    14 1   
    25    14    15 1   
    26    14    46 1   
    27    15    16 1   
    28    15    17 1   
    29    15    18 1   
    30    16    47 1   
    31    16    48 1   
    32    16    49 1   
    33    17    50 1   
    34    17    51 1   
    35    17    52 1   
    36    18    53 1   
    37    18    54 1   
    38    18    55 1   
    39    19    20 ar  
    40    20    21 1   
    41    20    36 ar  
    42    21    22 1   
    43    21    56 1   
    44    22    23 ar  
    45    22    35 ar  
    46    23    24 ar  
    47    23    57 1   
    48    24    25 ar  
    49    24    58 1   
    50    25    26 1   
    51    25    34 ar  
    52    26    27 1   
    53    27    28 1   
    54    27    59 1   
    55    27    60 1   
    56    28    29 1   
    57    28    61 1   
    58    28    62 1   
    59    29    30 1   
    60    29    33 1   
    61    30    31 2   
    62    30    63 1   
    63    31    32 1   
    64    31    64 1   
    65    32    33 2   
    66    32    65 1   
    67    33    66 1   
    68    34    35 ar  
    69    34    67 1   
    70    35    68 1   
    71    36    37 ar  
    72    37    69 1   
@<TRIPOS>SUBSTRUCTURE
     1 2R5         1 TEMP              0 ****  ****    0 ROOT
