@<TRIPOS>MOLECULE
2R5
   69    72     1     0     0
SMALL
abcg2


@<TRIPOS>ATOM
      1 C01          2.4560     4.3130    -0.2660 c3         1 2R5      -0.024800
      2 C02          1.3340     3.3240    -0.2270 ca         1 2R5      -0.293300
      3 C03          1.5400     1.9220    -0.2460 ca         1 2R5       0.426900
      4 N04          2.8170     1.4500    -0.2890 nu         1 2R5      -0.939900
      5 C05          3.2820     0.1390    -0.2290 ca         1 2R5       0.289000
      6 C06          2.5610    -0.9740    -0.6740 ca         1 2R5      -0.072000
      7 C07          3.1210    -2.2380    -0.5990 ca         1 2R5      -0.111000
      8 C08          4.3990    -2.4370    -0.0950 ca         1 2R5      -0.040000
      9 C09          5.1090    -1.3250     0.3240 ca         1 2R5      -0.235500
     10 C10          4.5690    -0.0510     0.2730 ca         1 2R5      -0.071000
     11 S11          6.7200    -1.5220     1.0440 sy         1 2R5       1.159600
     12 O12          6.6810    -0.9630     2.3900 o          1 2R5      -0.547500
     13 O13          7.0940    -2.9220     0.8900 o          1 2R5      -0.547500
     14 N14          7.6640    -0.4990     0.1800 n7         1 2R5      -0.922300
     15 C15          8.3150    -0.8130    -1.1110 c3         1 2R5       0.258200
     16 C16          7.3230    -1.4430    -2.0830 c3         1 2R5      -0.108433
     17 C17          8.7700     0.5370    -1.6610 c3         1 2R5      -0.108433
     18 C18          9.5270    -1.7250    -0.9150 c3         1 2R5      -0.108433
     19 N19          0.5340     1.0700    -0.2120 nb         1 2R5      -0.319000
     20 C20         -0.7030     1.5700    -0.1480 ca         1 2R5       0.421900
     21 N21         -1.6790     0.6200    -0.1200 nu         1 2R5      -0.928900
     22 C22         -3.0650     0.7340    -0.0190 ca         1 2R5       0.286000
     23 C23         -3.8180    -0.4040    -0.3050 ca         1 2R5      -0.113000
     24 C24         -5.2010    -0.4100    -0.1970 ca         1 2R5      -0.141000
     25 C25         -5.8710     0.7420     0.2010 ca         1 2R5       0.113100
     26 O26         -7.2140     0.8410     0.3390 os         1 2R5      -0.350100
     27 C27         -8.0050    -0.2950     0.0650 c3         1 2R5       0.141600
     28 C28         -9.4480     0.0940     0.3470 c3         1 2R5       0.066600
     29 N29        -10.3400    -1.0100     0.0830 na         1 2R5       0.017000
     30 C30        -10.6880    -1.9760     0.9800 cc         1 2R5      -0.200500
     31 C31        -11.4780    -2.8960     0.3390 cd         1 2R5      -0.177500
     32 C32        -11.6060    -2.4680    -1.0080 cd         1 2R5      -0.177500
     33 C33        -10.8880    -1.3050    -1.1300 cc         1 2R5      -0.200500
     34 C34         -5.1270     1.8830     0.4850 ca         1 2R5      -0.141000
     35 C35         -3.7460     1.8870     0.3820 ca         1 2R5      -0.113000
     36 N36         -1.0180     2.8540    -0.1150 nb         1 2R5      -0.257000
     37 C37          0.0150     3.6990    -0.1570 ca         1 2R5       0.170900
     38 H1           3.1270     4.2110     0.5910 hc         1 2R5       0.040367
     39 H2           3.0630     4.2110    -1.1690 hc         1 2R5       0.040367
     40 H3           2.0680     5.3300    -0.2490 hc         1 2R5       0.040367
     41 H4           3.5360     2.1490    -0.1910 hn         1 2R5       0.502000
     42 H5           1.5700    -0.8540    -1.0800 ha         1 2R5       0.143000
     43 H6           2.5500    -3.0880    -0.9470 ha         1 2R5       0.119000
     44 H7           4.8230    -3.4290    -0.0470 ha         1 2R5       0.143000
     45 H8           5.1440     0.8030     0.6110 ha         1 2R5       0.122000
     46 H9           8.2350     0.0610     0.8040 hn         1 2R5       0.492000
     47 H10          6.9900    -2.4300    -1.7620 hc         1 2R5       0.048033
     48 H11          6.4480    -0.8110    -2.2300 hc         1 2R5       0.048033
     49 H12          7.8130    -1.5680    -3.0490 hc         1 2R5       0.048033
     50 H13          7.9240     1.2100    -1.8020 hc         1 2R5       0.048033
     51 H14          9.4830     1.0190    -0.9890 hc         1 2R5       0.048033
     52 H15          9.2620     0.4020    -2.6250 hc         1 2R5       0.048033
     53 H16         10.0400    -1.8760    -1.8670 hc         1 2R5       0.048033
     54 H17         10.2410    -1.2800    -0.2200 hc         1 2R5       0.048033
     55 H18          9.2370    -2.7010    -0.5320 hc         1 2R5       0.048033
     56 H19         -1.3280    -0.3190    -0.2290 hn         1 2R5       0.507000
     57 H20         -3.3190    -1.3120    -0.6210 ha         1 2R5       0.131000
     58 H21         -5.7290    -1.3240    -0.4340 ha         1 2R5       0.123500
     59 H22         -7.8970    -0.6070    -0.9800 h1         1 2R5       0.045700
     60 H23         -7.7170    -1.1410     0.7000 h1         1 2R5       0.045700
     61 H24         -9.5610     0.3950     1.3890 h1         1 2R5       0.072200
     62 H25         -9.7420     0.9390    -0.2760 h1         1 2R5       0.072200
     63 H26        -10.3520    -1.9290     2.0040 h4         1 2R5       0.143000
     64 H27        -11.9220    -3.7700     0.7870 ha         1 2R5       0.132000
     65 H28        -12.1680    -2.9490    -1.7930 ha         1 2R5       0.132000
     66 H29        -10.7280    -0.6610    -1.9810 h4         1 2R5       0.143000
     67 H30         -5.6360     2.7860     0.8000 ha         1 2R5       0.123500
     68 H31         -3.2040     2.7890     0.6140 ha         1 2R5       0.131000
     69 H32         -0.2370     4.7550    -0.1320 h4         1 2R5       0.021100
@<TRIPOS>BOND
     1     1     2 1   
     2     1    38 1   
     3     1    39 1   
     4     1    40 1   
     5     2     3 ar  
     6     2    37 ar  
     7     3     4 1   
     8     3    19 ar  
     9     4     5 1   
    10     4    41 1   
    11     5     6 ar  
    12     5    10 ar  
    13     6     7 ar  
    14     6    42 1   
    15     7     8 ar  
    16     7    43 1   
    17     8     9 ar  
    18     8    44 1   
    19     9    10 ar  
    20     9    11 1   
    21    10    45 1   
    22    11    12 2   
    23    11    13 2   
    24    11    14 1   
    25    14    15 1   
    26    14    46 1   
    27    15    16 1   
    28    15    17 1   
    29    15    18 1   
    30    16    47 1   
    31    16    48 1   
    32    16    49 1   
    33    17    50 1   
    34    17    51 1   
    35    17    52 1   
    36    18    53 1   
    37    18    54 1   
    38    18    55 1   
    39    19    20 ar  
    40    20    21 1   
    41    20    36 ar  
    42    21    22 1   
    43    21    56 1   
    44    22    23 ar  
    45    22    35 ar  
    46    23    24 ar  
    47    23    57 1   
    48    24    25 ar  
    49    24    58 1   
    50    25    26 1   
    51    25    34 ar  
    52    26    27 1   
    53    27    28 1   
    54    27    59 1   
    55    27    60 1   
    56    28    29 1   
    57    28    61 1   
    58    28    62 1   
    59    29    30 1   
    60    29    33 1   
    61    30    31 2   
    62    30    63 1   
    63    31    32 1   
    64    31    64 1   
    65    32    33 2   
    66    32    65 1   
    67    33    66 1   
    68    34    35 ar  
    69    34    67 1   
    70    35    68 1   
    71    36    37 ar  
    72    37    69 1   
@<TRIPOS>SUBSTRUCTURE
     1 2R5         1 TEMP              0 ****  ****    0 ROOT
