@<TRIPOS>MOLECULE
2R6
   58    61     1     0     0
SMALL
bcc


@<TRIPOS>ATOM
      1 O1          -5.1490    -0.8000     0.0930 o          1 2R6      -0.637500
      2 C21         -4.1250    -1.4380    -0.1240 c          1 2R6       0.721100
      3 N1          -4.1680    -2.7610    -0.3610 ns         1 2R6      -0.578900
      4 C22         -3.0120    -3.5970    -0.6050 c6         1 2R6       0.115000
      5 C23         -2.0280    -2.8300    -1.4600 c6         1 2R6      -0.057100
      6 C13         -1.7340    -1.5080    -0.8120 ca         1 2R6      -0.043300
      7 C12         -0.4570    -0.9780    -0.8770 ca         1 2R6      -0.146000
      8 C14         -2.7630    -0.8160    -0.1510 ca         1 2R6      -0.139600
      9 C15         -2.4930     0.4190     0.4640 ca         1 2R6       0.005700
     10 C17         -3.4990     1.2750     1.1850 c3         1 2R6      -0.031100
     11 C18         -4.2980     2.2210     0.2720 c3         1 2R6      -0.054700
     12 C20         -5.3230     2.9810     1.1070 c3         1 2R6      -0.088600
     13 C19         -3.4000     3.1920    -0.4860 c3         1 2R6      -0.088600
     14 C16         -1.1860     0.9020     0.4230 ca         1 2R6      -0.149000
     15 C11         -0.1800     0.2200    -0.2390 ca         1 2R6       0.019800
     16 N            1.1260     0.7590    -0.2600 na         1 2R6       0.017800
     17 C2           1.4230     2.0430    -0.6920 cc         1 2R6      -0.170300
     18 C3           2.2640     0.1500     0.1510 cc         1 2R6      -0.040600
     19 C8           2.3930    -1.1960     0.7680 c6         1 2R6      -0.012100
     20 C7           3.8260    -1.7240     0.5880 c6         1 2R6      -0.033000
     21 C10          4.0690    -2.1170    -0.8710 c3         1 2R6      -0.087600
     22 C9           4.0140    -2.9580     1.4670 c3         1 2R6      -0.087600
     23 C6           4.8270    -0.6410     1.0180 c6         1 2R6      -0.174400
     24 C5           4.6600     0.7020     0.3360 c          1 2R6       0.615700
     25 O            5.6110     1.4450     0.1490 o          1 2R6      -0.542100
     26 C4           3.3020     1.0460    -0.0240 cd         1 2R6      -0.255600
     27 C1           2.7620     2.2550    -0.5720 cd         1 2R6      -0.069300
     28 C            3.4970     3.4990    -0.9390 c3         1 2R6      -0.018800
     29 H1          -5.0770    -3.1950    -0.3220 hn         1 2R6       0.323500
     30 H2          -2.5410    -3.9000     0.3350 h1         1 2R6       0.048200
     31 H3          -3.3450    -4.5000    -1.1120 h1         1 2R6       0.048200
     32 H4          -1.1100    -3.4040    -1.5860 hc         1 2R6       0.066200
     33 H5          -2.4510    -2.6730    -2.4580 hc         1 2R6       0.066200
     34 H6           0.3160    -1.5000    -1.4270 ha         1 2R6       0.148000
     35 H7          -4.1950     0.6620     1.7540 hc         1 2R6       0.056700
     36 H8          -2.9570     1.8890     1.9120 hc         1 2R6       0.056700
     37 H9          -4.8350     1.6080    -0.4560 hc         1 2R6       0.071700
     38 H10         -4.8300     3.6230     1.8420 hc         1 2R6       0.032200
     39 H11         -5.9480     3.6180     0.4800 hc         1 2R6       0.032200
     40 H12         -5.9810     2.2990     1.6480 hc         1 2R6       0.032200
     41 H13         -2.7090     2.6790    -1.1570 hc         1 2R6       0.032200
     42 H14         -3.9970     3.8740    -1.0940 hc         1 2R6       0.032200
     43 H15         -2.8030     3.7970     0.2010 hc         1 2R6       0.032200
     44 H16         -0.9500     1.8280     0.9320 ha         1 2R6       0.151000
     45 H17          0.6440     2.6850    -1.0710 h4         1 2R6       0.171000
     46 H18          2.1630    -1.1200     1.8380 hc         1 2R6       0.057200
     47 H19          1.6830    -1.9140     0.3560 hc         1 2R6       0.057200
     48 H20          3.9350    -1.2820    -1.5610 hc         1 2R6       0.037533
     49 H21          5.0870    -2.4900    -1.0010 hc         1 2R6       0.037533
     50 H22          3.3850    -2.9110    -1.1770 hc         1 2R6       0.037533
     51 H23          3.3100    -3.7450     1.1890 hc         1 2R6       0.037533
     52 H24          5.0220    -3.3640     1.3600 hc         1 2R6       0.037533
     53 H25          3.8550    -2.7260     2.5220 hc         1 2R6       0.037533
     54 H26          4.7160    -0.4590     2.0950 hc         1 2R6       0.067200
     55 H27          5.8530    -0.9890     0.8670 hc         1 2R6       0.067200
     56 H28          4.2630     3.3080    -1.6910 hc         1 2R6       0.045033
     57 H29          2.8150     4.2470    -1.3410 hc         1 2R6       0.045033
     58 H30          4.0030     3.9360    -0.0770 hc         1 2R6       0.045033
@<TRIPOS>BOND
     1     1     2 2   
     2     2     3 1   
     3     2     8 1   
     4     3     4 1   
     5     3    29 1   
     6     4     5 1   
     7     4    30 1   
     8     4    31 1   
     9     5     6 1   
    10     5    32 1   
    11     5    33 1   
    12     6     7 ar  
    13     6     8 ar  
    14     7    15 ar  
    15     7    34 1   
    16     8     9 ar  
    17     9    10 1   
    18     9    14 ar  
    19    10    11 1   
    20    10    35 1   
    21    10    36 1   
    22    11    12 1   
    23    11    13 1   
    24    11    37 1   
    25    12    38 1   
    26    12    39 1   
    27    12    40 1   
    28    13    41 1   
    29    13    42 1   
    30    13    43 1   
    31    14    15 ar  
    32    14    44 1   
    33    15    16 1   
    34    16    17 1   
    35    16    18 1   
    36    17    27 2   
    37    17    45 1   
    38    18    19 1   
    39    18    26 2   
    40    19    20 1   
    41    19    46 1   
    42    19    47 1   
    43    20    21 1   
    44    20    22 1   
    45    20    23 1   
    46    21    48 1   
    47    21    49 1   
    48    21    50 1   
    49    22    51 1   
    50    22    52 1   
    51    22    53 1   
    52    23    24 1   
    53    23    54 1   
    54    23    55 1   
    55    24    25 2   
    56    24    26 1   
    57    26    27 1   
    58    27    28 1   
    59    28    56 1   
    60    28    57 1   
    61    28    58 1   
@<TRIPOS>SUBSTRUCTURE
     1 2R6         1 TEMP              0 ****  ****    0 ROOT
