@<TRIPOS>MOLECULE
2R6
   58    61     1     0     0
SMALL
No Charge or Current Charge


@<TRIPOS>ATOM
      1 O1          -5.1930    -0.8670     0.1510 o          1 2R6      -0.562000
      2 C21         -4.1640    -1.4480    -0.1480 c          1 2R6       0.578600
      3 N1          -4.2500    -2.7640    -0.5350 ns         1 2R6      -0.511900
      4 C22         -3.1250    -3.6110    -0.9270 c6         1 2R6       0.115000
      5 C23         -2.0180    -2.7880    -1.6000 c6         1 2R6      -0.057100
      6 C13         -1.7380    -1.4820    -0.8600 ca         1 2R6      -0.043300
      7 C12         -0.4430    -0.9420    -0.9190 ca         1 2R6      -0.128000
      8 C14         -2.7770    -0.8100    -0.1620 ca         1 2R6      -0.139600
      9 C15         -2.4720     0.4280     0.4850 ca         1 2R6       0.005700
     10 C17         -3.4850     1.2520     1.2890 c3         1 2R6      -0.031100
     11 C18         -4.3180     2.2410     0.4260 c3         1 2R6      -0.054700
     12 C20         -5.4380     2.9020     1.2610 c3         1 2R6      -0.088600
     13 C19         -3.4400     3.3120    -0.2650 c3         1 2R6      -0.088600
     14 C16         -1.1580     0.9370     0.4230 ca         1 2R6      -0.131000
     15 C11         -0.1430     0.2620    -0.2690 ca         1 2R6       0.019800
     16 N            1.1410     0.8000    -0.3290 na         1 2R6       0.119200
     17 C2           1.4190     2.0310    -0.9060 cc         1 2R6      -0.203000
     18 C3           2.2750     0.1800     0.1790 cc         1 2R6      -0.091300
     19 C8           2.4130    -1.1480     0.8870 c6         1 2R6      -0.012100
     20 C7           3.8670    -1.6970     0.7370 c6         1 2R6      -0.033000
     21 C10          4.1110    -2.2100    -0.7170 c3         1 2R6      -0.087600
     22 C9           4.0720    -2.9110     1.6910 c3         1 2R6      -0.087600
     23 C6           4.8870    -0.5700     1.0900 c6         1 2R6      -0.174400
     24 C5           4.7040     0.7300     0.2830 c          1 2R6       0.615700
     25 O            5.6640     1.4250    -0.0270 o          1 2R6      -0.542100
     26 C4           3.3000     1.0480    -0.0980 cd         1 2R6      -0.255600
     27 C1           2.7780     2.1890    -0.7770 cd         1 2R6      -0.069300
     28 C            3.5720     3.3720    -1.2650 c3         1 2R6      -0.018800
     29 H1          -5.1810    -3.1640    -0.5310 hn         1 2R6       0.323500
     30 H2          -2.7260    -4.0880    -0.0200 h1         1 2R6       0.048200
     31 H3          -3.4780    -4.4030    -1.6030 h1         1 2R6       0.048200
     32 H4          -1.1080    -3.3980    -1.6790 hc         1 2R6       0.066200
     33 H5          -2.3220    -2.5510    -2.6290 hc         1 2R6       0.066200
     34 H6           0.3340    -1.4580    -1.4780 ha         1 2R6       0.130000
     35 H7          -4.1510     0.5930     1.8570 hc         1 2R6       0.056700
     36 H8          -2.9610     1.8280     2.0620 hc         1 2R6       0.056700
     37 H9          -4.8070     1.6670    -0.3700 hc         1 2R6       0.071700
     38 H10         -5.0160     3.5010     2.0770 hc         1 2R6       0.032200
     39 H11         -6.0530     3.5590     0.6350 hc         1 2R6       0.032200
     40 H12         -6.0970     2.1410     1.6980 hc         1 2R6       0.032200
     41 H13         -2.7250     2.8490    -0.9550 hc         1 2R6       0.032200
     42 H14         -4.0600     4.0040    -0.8470 hc         1 2R6       0.032200
     43 H15         -2.8790     3.8950     0.4750 hc         1 2R6       0.032200
     44 H16         -0.9200     1.8740     0.9200 ha         1 2R6       0.133000
     45 H17          0.6600     2.6600    -1.3520 h4         1 2R6       0.153000
     46 H18          2.1740    -1.0160     1.9510 hc         1 2R6       0.057200
     47 H19          1.6950    -1.8880     0.5100 hc         1 2R6       0.057200
     48 H20          3.9720    -1.4160    -1.4600 hc         1 2R6       0.037533
     49 H21          5.1300    -2.5950    -0.8380 hc         1 2R6       0.037533
     50 H22          3.4190    -3.0210    -0.9760 hc         1 2R6       0.037533
     51 H23          3.3650    -3.7200     1.4700 hc         1 2R6       0.037533
     52 H24          5.0850    -3.3240     1.6040 hc         1 2R6       0.037533
     53 H25          3.9250    -2.6250     2.7400 hc         1 2R6       0.037533
     54 H26          4.6940    -0.2870     2.1330 hc         1 2R6       0.067200
     55 H27          5.9330    -0.8980     1.0340 hc         1 2R6       0.067200
     56 H28          4.3130     3.0670    -2.0130 hc         1 2R6       0.045033
     57 H29          2.9210     4.1240    -1.7270 hc         1 2R6       0.045033
     58 H30          4.1050     3.8560    -0.4380 hc         1 2R6       0.045033
@<TRIPOS>BOND
     1     1     2 2   
     2     2     3 1   
     3     2     8 1   
     4     3     4 1   
     5     3    29 1   
     6     4     5 1   
     7     4    30 1   
     8     4    31 1   
     9     5     6 1   
    10     5    32 1   
    11     5    33 1   
    12     6     7 ar  
    13     6     8 ar  
    14     7    15 ar  
    15     7    34 1   
    16     8     9 ar  
    17     9    10 1   
    18     9    14 ar  
    19    10    11 1   
    20    10    35 1   
    21    10    36 1   
    22    11    12 1   
    23    11    13 1   
    24    11    37 1   
    25    12    38 1   
    26    12    39 1   
    27    12    40 1   
    28    13    41 1   
    29    13    42 1   
    30    13    43 1   
    31    14    15 ar  
    32    14    44 1   
    33    15    16 1   
    34    16    17 1   
    35    16    18 1   
    36    17    27 2   
    37    17    45 1   
    38    18    19 1   
    39    18    26 2   
    40    19    20 1   
    41    19    46 1   
    42    19    47 1   
    43    20    21 1   
    44    20    22 1   
    45    20    23 1   
    46    21    48 1   
    47    21    49 1   
    48    21    50 1   
    49    22    51 1   
    50    22    52 1   
    51    22    53 1   
    52    23    24 1   
    53    23    54 1   
    54    23    55 1   
    55    24    25 2   
    56    24    26 1   
    57    26    27 1   
    58    27    28 1   
    59    28    56 1   
    60    28    57 1   
    61    28    58 1   
@<TRIPOS>SUBSTRUCTURE
     1 2R6         1 TEMP              0 ****  ****    0 ROOT
