@<TRIPOS>MOLECULE
2R8
   97   101     1     0     0
SMALL
No Charge or Current Charge


@<TRIPOS>ATOM
      1 C1          -0.2550    -1.5200    -0.7660 c5         1 2R8       0.028700
      2 C2           0.9750    -2.4680    -0.9510 c5         1 2R8      -0.088400
      3 C3           1.9210    -2.0170     0.1870 c5         1 2R8       0.165300
      4 C7          -1.3110    -2.1950     0.1650 c          1 2R8       0.597100
      5 C10          4.1650    -2.0330     0.7910 ca         1 2R8       0.618300
      6 C12          4.8590    -1.9820     3.0020 ca         1 2R8       0.375900
      7 C13          6.0000    -1.2370     2.6800 ca         1 2R8      -0.189000
      8 C14          6.2320    -0.8890     1.3420 ca         1 2R8       0.049000
      9 C15          5.3000    -1.3010     0.3720 ca         1 2R8      -0.138000
     10 C16         -3.1390    -3.9010    -0.0120 cx         1 2R8      -0.054600
     11 C19         -4.3710    -3.1420     0.4940 c          1 2R8       0.671100
     12 C21         -5.5570    -5.5020    -1.8410 c2         1 2R8      -0.298000
     13 N23         -4.9870    -2.4180    -0.4710 ns         1 2R8      -0.577300
     14 C27         -5.6820    -0.0210     0.6780 cx         1 2R8      -0.428700
     15 C30          7.3660    -0.1490     0.9720 ca         1 2R8      -0.168000
     16 C31          7.5830     0.1880    -0.3730 ca         1 2R8       0.171100
     17 C32          6.6520    -0.2230    -1.3520 ca         1 2R8      -0.201000
     18 C33          5.5160    -0.9640    -0.9820 ca         1 2R8      -0.020000
     19 C4           1.8240    -0.4700     0.0590 c5         1 2R8       0.082000
     20 N5           0.3700    -0.3030    -0.1680 n          1 2R8      -0.394800
     21 O6           3.2630    -2.4580    -0.1640 os         1 2R8      -0.462300
     22 O8          -1.5080    -1.9670     1.3510 o          1 2R8      -0.569100
     23 N9          -2.0510    -3.1090    -0.5620 ns         1 2R8      -0.487900
     24 N11          3.9560    -2.3810     2.0810 nb         1 2R8      -0.779000
     25 C17         -3.3640    -5.2560    -0.6570 cx         1 2R8      -0.060500
     26 C18         -2.7430    -5.1720     0.7150 cx         1 2R8      -0.067400
     27 O22         -4.7480    -3.1700     1.6570 o          1 2R8      -0.562100
     28 S24         -6.3190    -1.4400    -0.3210 s6         1 2R8       1.265800
     29 O25         -6.6480    -0.9470    -1.6620 o          1 2R8      -0.531000
     30 O26         -7.3290    -2.1350     0.4830 o          1 2R8      -0.531000
     31 C28         -6.2650     1.3700     0.5250 cx         1 2R8      -0.068400
     32 C29         -4.8620     1.0790     0.0320 cx         1 2R8      -0.068400
     33 C36          0.3140     2.1520     0.6320 c3         1 2R8       0.069700
     34 C37         -0.0590     2.1800     2.1700 c3         1 2R8      -0.048000
     35 C38         -1.6010     2.1700     2.3650 c3         1 2R8      -0.091100
     36 C39          0.5320     0.9580     2.9250 c3         1 2R8      -0.091100
     37 C40          0.5130     3.4600     2.8450 c3         1 2R8      -0.091100
     38 N41         -0.0960     3.4010    -0.0530 ns         1 2R8      -0.501900
     39 C42          0.7200     4.4590    -0.3250 c          1 2R8       0.654100
     40 O43          1.9080     4.5070    -0.0510 o          1 2R8      -0.558000
     41 O44         -0.0260     5.4130    -0.9580 os         1 2R8      -0.473100
     42 C45          0.5290     6.6820    -1.3780 c3         1 2R8       0.225000
     43 C46          1.6380     6.4430    -2.4350 c3         1 2R8      -0.108767
     44 C47         -0.6630     7.4230    -2.0230 c3         1 2R8      -0.108767
     45 C48          1.0300     7.4660    -0.1370 c3         1 2R8      -0.108767
     46 O49          8.7130     0.9160    -0.6800 os         1 2R8      -0.340100
     47 C50          9.0270     1.3140    -2.0270 c3         1 2R8       0.148900
     48 H1          -0.7350    -1.2980    -1.7290 h1         1 2R8       0.076700
     49 H2           0.7190    -3.5320    -0.8860 hc         1 2R8       0.070700
     50 H3           1.4390    -2.3090    -1.9320 hc         1 2R8       0.070700
     51 H4           1.5950    -2.3940     1.1670 h1         1 2R8       0.092700
     52 H5           4.6590    -2.2710     4.0340 h4         1 2R8       0.020100
     53 H6           6.6920    -0.9430     3.4640 ha         1 2R8       0.129000
     54 H7          -5.0720    -6.4940    -0.0380 ha         1 2R8       0.199000
     55 H8          -6.5570    -5.9320    -1.9180 ha         1 2R8       0.164000
     56 H9          -5.2530    -4.8240    -2.6400 ha         1 2R8       0.164000
     57 H10         -4.6160    -2.4160    -1.4030 hn         1 2R8       0.367500
     58 H11         -5.4050    -0.3850     1.6640 h1         1 2R8       0.145700
     59 H12          8.0840     0.1670     1.7240 ha         1 2R8       0.134000
     60 H13          6.7920     0.0220    -2.4010 ha         1 2R8       0.121000
     61 H14          4.8100    -1.2710    -1.7510 ha         1 2R8       0.127000
     62 H15          2.1840     0.0260     0.9660 h1         1 2R8       0.075700
     63 H16          2.3990    -0.0940    -0.7980 h1         1 2R8       0.075700
     64 H17         -1.8000    -3.2210    -1.5390 hn         1 2R8       0.326500
     65 H18         -2.6930    -5.5340    -1.4670 hc         1 2R8       0.076700
     66 H19         -1.6840    -5.3990     0.8050 hc         1 2R8       0.094200
     67 H20         -3.3410    -5.4860     1.5670 hc         1 2R8       0.094200
     68 H21         -7.0380     1.5320    -0.2240 hc         1 2R8       0.087700
     69 H22         -6.3690     1.9810     1.4190 hc         1 2R8       0.087700
     70 H23         -4.0340     1.4990     0.5960 hc         1 2R8       0.087700
     71 H24         -4.7010     1.0470    -1.0440 hc         1 2R8       0.087700
     72 H25          1.4030     2.0730     0.5450 h1         1 2R8       0.091700
     73 H26         -2.0410     1.2350     2.0000 hc         1 2R8       0.041478
     74 H27         -1.8610     2.2610     3.4270 hc         1 2R8       0.041478
     75 H28         -2.0770     3.0040     1.8350 hc         1 2R8       0.041478
     76 H29          1.6270     0.9570     2.8780 hc         1 2R8       0.041478
     77 H30          0.2530     0.9850     3.9860 hc         1 2R8       0.041478
     78 H31          0.1610     0.0110     2.5180 hc         1 2R8       0.041478
     79 H32          0.0450     4.3700     2.4500 hc         1 2R8       0.041478
     80 H33          0.3340     3.4480     3.9270 hc         1 2R8       0.041478
     81 H34          1.5960     3.5360     2.6860 hc         1 2R8       0.041478
     82 H35         -1.0500     3.4860    -0.3800 hn         1 2R8       0.345500
     83 H36          1.2950     5.7450    -3.2080 hc         1 2R8       0.049367
     84 H37          1.9060     7.3860    -2.9250 hc         1 2R8       0.049367
     85 H38          2.5520     6.0410    -1.9860 hc         1 2R8       0.049367
     86 H39         -1.0570     6.8580    -2.8760 hc         1 2R8       0.049367
     87 H40         -1.4750     7.5600    -1.2990 hc         1 2R8       0.049367
     88 H41         -0.3580     8.4130    -2.3830 hc         1 2R8       0.049367
     89 H42          1.2420     8.5080    -0.4050 hc         1 2R8       0.049367
     90 H43          0.2710     7.4680     0.6540 hc         1 2R8       0.049367
     91 H44          1.9540     7.0420     0.2700 hc         1 2R8       0.049367
     92 H45          9.1480     0.4370    -2.6750 h1         1 2R8       0.044033
     93 H46          8.2350     1.9510    -2.4400 h1         1 2R8       0.044033
     94 H47          9.9650     1.8830    -2.0460 h1         1 2R8       0.044033
     95 C34         -0.3010     0.9410    -0.1560 c          1 2R8       0.607100
     96 C20         -4.7410    -5.8020    -0.8190 c2         1 2R8      -0.200200
     97 O35         -1.3780     1.0470    -0.7370 o          1 2R8      -0.628100
@<TRIPOS>BOND
     1     1     2 1   
     2     1     4 1   
     3     1    20 1   
     4     1    48 1   
     5     2     3 1   
     6     2    49 1   
     7     2    50 1   
     8     3    19 1   
     9     3    21 1   
    10     3    51 1   
    11     4    22 2   
    12     4    23 1   
    13     5     9 ar  
    14     5    21 1   
    15     5    24 ar  
    16     6     7 ar  
    17     6    24 ar  
    18     6    52 1   
    19     7     8 ar  
    20     7    53 1   
    21     8     9 ar  
    22     8    15 ar  
    23     9    18 ar  
    24    10    11 1   
    25    10    23 1   
    26    10    25 1   
    27    10    26 1   
    28    11    13 1   
    29    11    27 2   
    30    12    55 1   
    31    12    56 1   
    32    12    96 2   
    33    13    28 1   
    34    13    57 1   
    35    14    28 1   
    36    14    31 1   
    37    14    32 1   
    38    14    58 1   
    39    15    16 ar  
    40    15    59 1   
    41    16    17 ar  
    42    16    46 1   
    43    17    18 ar  
    44    17    60 1   
    45    18    61 1   
    46    19    20 1   
    47    19    62 1   
    48    19    63 1   
    49    20    95 1   
    50    23    64 1   
    51    25    26 1   
    52    25    65 1   
    53    25    96 1   
    54    26    66 1   
    55    26    67 1   
    56    28    29 2   
    57    28    30 2   
    58    31    32 1   
    59    31    68 1   
    60    31    69 1   
    61    32    70 1   
    62    32    71 1   
    63    33    34 1   
    64    33    38 1   
    65    33    72 1   
    66    33    95 1   
    67    34    35 1   
    68    34    36 1   
    69    34    37 1   
    70    35    73 1   
    71    35    74 1   
    72    35    75 1   
    73    36    76 1   
    74    36    77 1   
    75    36    78 1   
    76    37    79 1   
    77    37    80 1   
    78    37    81 1   
    79    38    39 1   
    80    38    82 1   
    81    39    40 2   
    82    39    41 1   
    83    41    42 1   
    84    42    43 1   
    85    42    44 1   
    86    42    45 1   
    87    43    83 1   
    88    43    84 1   
    89    43    85 1   
    90    44    86 1   
    91    44    87 1   
    92    44    88 1   
    93    45    89 1   
    94    45    90 1   
    95    45    91 1   
    96    46    47 1   
    97    47    92 1   
    98    47    93 1   
    99    47    94 1   
   100    54    96 1   
   101    95    97 2   
@<TRIPOS>SUBSTRUCTURE
     1 2R8         1 TEMP              0 ****  ****    0 ROOT
