@<TRIPOS>MOLECULE
2R8
   97   101     1     0     0
SMALL
abcg2


@<TRIPOS>ATOM
      1 C1           0.1170    -0.9010    -1.1120 c5         1 2R8       0.028700
      2 C2           1.4520    -1.6380    -1.2720 c5         1 2R8      -0.088400
      3 C3           2.3010    -1.0740    -0.1440 c5         1 2R8       0.165300
      4 C7          -0.8680    -1.7170    -0.2840 c          1 2R8       0.597100
      5 C10          4.5770    -1.0580     0.5070 ca         1 2R8       0.618300
      6 C12          5.1680    -0.3540     2.5880 ca         1 2R8       0.375900
      7 C13          6.4870    -0.6270     2.4030 ca         1 2R8      -0.189000
      8 C14          6.9070    -1.1700     1.1590 ca         1 2R8       0.049000
      9 C15          5.9220    -1.3960     0.1700 ca         1 2R8      -0.138000
     10 C16         -2.7340    -3.2640    -0.4430 cx         1 2R8      -0.054600
     11 C19         -4.0000    -2.6250     0.0320 c          1 2R8       0.671100
     12 C21         -4.4010    -5.9400    -2.4870 c2         1 2R8      -0.298000
     13 N23         -4.1820    -1.3310    -0.3880 ns         1 2R8      -0.577300
     14 C27         -5.9280    -0.1840     1.3590 cx         1 2R8      -0.428700
     15 C30          8.2450    -1.4860     0.8830 ca         1 2R8      -0.168000
     16 C31          8.6030    -2.0150    -0.3410 ca         1 2R8       0.171100
     17 C32          7.6170    -2.2410    -1.3270 ca         1 2R8      -0.201000
     18 C33          6.3060    -1.9360    -1.0700 ca         1 2R8      -0.020000
     19 C4           1.8900     0.3950    -0.1020 c5         1 2R8       0.082000
     20 N5           0.4700     0.3160    -0.4040 n          1 2R8      -0.394800
     21 O6           3.6670    -1.2830    -0.4460 os         1 2R8      -0.462300
     22 O8          -0.8130    -1.7870     0.9270 o          1 2R8      -0.569100
     23 N9          -1.7730    -2.3970    -1.0240 ns         1 2R8      -0.487900
     24 N11          4.2130    -0.5640     1.6480 nb         1 2R8      -0.779000
     25 C17         -2.8340    -4.6500    -1.0940 cx         1 2R8      -0.060500
     26 C18         -2.2520    -4.4920     0.2670 cx         1 2R8      -0.067400
     27 O22         -4.8240    -3.2000     0.7080 o          1 2R8      -0.562100
     28 S24         -5.6680    -0.5490    -0.3340 s6         1 2R8       1.265800
     29 O25         -5.4440     0.6830    -1.0690 o          1 2R8      -0.531000
     30 O26         -6.6880    -1.4750    -0.7840 o          1 2R8      -0.531000
     31 C28         -6.7330     1.0430     1.6740 cx         1 2R8      -0.068400
     32 C29         -5.2660     1.0240     1.9380 cx         1 2R8      -0.068400
     33 C36         -0.1570     2.4290     0.7260 c3         1 2R8       0.069700
     34 C37         -0.4540     2.2720     2.2480 c3         1 2R8      -0.048000
     35 C38         -1.9140     1.9000     2.5050 c3         1 2R8      -0.091100
     36 C39          0.4470     1.2020     2.8660 c3         1 2R8      -0.091100
     37 C40         -0.1550     3.6080     2.9340 c3         1 2R8      -0.091100
     38 N41         -0.8840     3.5230     0.1330 ns         1 2R8      -0.501900
     39 C42         -0.2940     4.6710    -0.2640 c          1 2R8       0.654100
     40 O43          0.8870     4.9200    -0.1290 o          1 2R8      -0.558000
     41 O44         -1.2000     5.4760    -0.8190 os         1 2R8      -0.473100
     42 C45         -0.8760     6.8080    -1.2980 c3         1 2R8       0.225000
     43 C46          0.1530     6.7580    -2.4220 c3         1 2R8      -0.108767
     44 C47         -2.2090     7.3070    -1.8440 c3         1 2R8      -0.108767
     45 C48         -0.4220     7.7020    -0.1510 c3         1 2R8      -0.108767
     46 O49          9.9030    -2.2900    -0.5220 os         1 2R8      -0.340100
     47 C50         10.3330    -2.8150    -1.7660 c3         1 2R8       0.148900
     48 H1          -0.3180    -0.6730    -2.0880 h1         1 2R8       0.076700
     49 H2           1.3470    -2.7220    -1.2340 hc         1 2R8       0.070700
     50 H3           1.8950    -1.3760    -2.2340 hc         1 2R8       0.070700
     51 H4           2.0490    -1.5470     0.8090 h1         1 2R8       0.092700
     52 H5           4.8160     0.0590     3.5250 h4         1 2R8       0.020100
     53 H6           7.2060    -0.4360     3.1890 ha         1 2R8       0.129000
     54 H7          -4.8200    -5.3930    -0.5160 ha         1 2R8       0.199000
     55 H8          -5.3340    -6.4690    -2.6250 ha         1 2R8       0.164000
     56 H9          -3.7180    -5.9250    -3.3280 ha         1 2R8       0.164000
     57 H10         -3.4300    -0.8100    -0.8280 hn         1 2R8       0.367500
     58 H11         -6.0550    -1.0740     1.9620 h1         1 2R8       0.145700
     59 H12          9.0040    -1.3150     1.6370 ha         1 2R8       0.134000
     60 H13          7.8780    -2.6540    -2.2910 ha         1 2R8       0.121000
     61 H14          5.5670    -2.1180    -1.8380 ha         1 2R8       0.127000
     62 H15          2.0840     0.8390     0.8680 h1         1 2R8       0.075700
     63 H16          2.4270     0.9680    -0.8650 h1         1 2R8       0.075700
     64 H17         -1.7780    -2.2790    -2.0260 hn         1 2R8       0.326500
     65 H18         -2.1150    -4.7560    -1.9000 hc         1 2R8       0.076700
     66 H19         -1.1830    -4.6000     0.3860 hc         1 2R8       0.094200
     67 H20         -2.8380    -4.8310     1.1120 hc         1 2R8       0.094200
     68 H21         -7.0910     1.6510     0.8540 hc         1 2R8       0.087700
     69 H22         -7.4200     0.9550     2.5030 hc         1 2R8       0.087700
     70 H23         -4.9160     0.9310     2.9570 hc         1 2R8       0.087700
     71 H24         -4.6310     1.6130     1.2900 hc         1 2R8       0.087700
     72 H25          0.9030     2.6640     0.6220 h1         1 2R8       0.091700
     73 H26         -2.1620     0.9080     2.1300 hc         1 2R8       0.041478
     74 H27         -2.1070     1.9040     3.5800 hc         1 2R8       0.041478
     75 H28         -2.6020     2.6160     2.0520 hc         1 2R8       0.041478
     76 H29          1.5030     1.4760     2.8050 hc         1 2R8       0.041478
     77 H30          0.2080     1.0920     3.9250 hc         1 2R8       0.041478
     78 H31          0.3170     0.2220     2.4020 hc         1 2R8       0.041478
     79 H32         -0.8290     4.3980     2.6020 hc         1 2R8       0.041478
     80 H33         -0.2840     3.5020     4.0130 hc         1 2R8       0.041478
     81 H34          0.8690     3.9380     2.7510 hc         1 2R8       0.041478
     82 H35         -1.8660     3.3910    -0.0550 hn         1 2R8       0.345500
     83 H36         -0.1570     6.0640    -3.2050 hc         1 2R8       0.049367
     84 H37          0.2340     7.7470    -2.8750 hc         1 2R8       0.049367
     85 H38          1.1400     6.4700    -2.0700 hc         1 2R8       0.049367
     86 H39         -2.5570     6.6870    -2.6710 hc         1 2R8       0.049367
     87 H40         -2.9780     7.3150    -1.0710 hc         1 2R8       0.049367
     88 H41         -2.0990     8.3260    -2.2150 hc         1 2R8       0.049367
     89 H42         -0.3220     8.7260    -0.5150 hc         1 2R8       0.049367
     90 H43         -1.1570     7.7110     0.6550 hc         1 2R8       0.049367
     91 H44          0.5400     7.4010     0.2580 hc         1 2R8       0.049367
     92 H45          9.8770    -3.7840    -1.9800 h1         1 2R8       0.044033
     93 H46         10.1210    -2.1310    -2.5910 h1         1 2R8       0.044033
     94 H47         11.4090    -2.9450    -1.6860 h1         1 2R8       0.044033
     95 C34         -0.5060     1.1800    -0.0850 c          1 2R8       0.607100
     96 C20         -4.1110    -5.3460    -1.3330 c2         1 2R8      -0.200200
     97 O35         -1.6600     0.9800    -0.4470 o          1 2R8      -0.628100
@<TRIPOS>BOND
     1     1     2 1   
     2     1     4 1   
     3     1    20 1   
     4     1    48 1   
     5     2     3 1   
     6     2    49 1   
     7     2    50 1   
     8     3    19 1   
     9     3    21 1   
    10     3    51 1   
    11     4    22 2   
    12     4    23 1   
    13     5     9 ar  
    14     5    21 1   
    15     5    24 ar  
    16     6     7 ar  
    17     6    24 ar  
    18     6    52 1   
    19     7     8 ar  
    20     7    53 1   
    21     8     9 ar  
    22     8    15 ar  
    23     9    18 ar  
    24    10    11 1   
    25    10    23 1   
    26    10    25 1   
    27    10    26 1   
    28    11    13 1   
    29    11    27 2   
    30    12    55 1   
    31    12    56 1   
    32    12    96 2   
    33    13    28 1   
    34    13    57 1   
    35    14    28 1   
    36    14    31 1   
    37    14    32 1   
    38    14    58 1   
    39    15    16 ar  
    40    15    59 1   
    41    16    17 ar  
    42    16    46 1   
    43    17    18 ar  
    44    17    60 1   
    45    18    61 1   
    46    19    20 1   
    47    19    62 1   
    48    19    63 1   
    49    20    95 1   
    50    23    64 1   
    51    25    26 1   
    52    25    65 1   
    53    25    96 1   
    54    26    66 1   
    55    26    67 1   
    56    28    29 2   
    57    28    30 2   
    58    31    32 1   
    59    31    68 1   
    60    31    69 1   
    61    32    70 1   
    62    32    71 1   
    63    33    34 1   
    64    33    38 1   
    65    33    72 1   
    66    33    95 1   
    67    34    35 1   
    68    34    36 1   
    69    34    37 1   
    70    35    73 1   
    71    35    74 1   
    72    35    75 1   
    73    36    76 1   
    74    36    77 1   
    75    36    78 1   
    76    37    79 1   
    77    37    80 1   
    78    37    81 1   
    79    38    39 1   
    80    38    82 1   
    81    39    40 2   
    82    39    41 1   
    83    41    42 1   
    84    42    43 1   
    85    42    44 1   
    86    42    45 1   
    87    43    83 1   
    88    43    84 1   
    89    43    85 1   
    90    44    86 1   
    91    44    87 1   
    92    44    88 1   
    93    45    89 1   
    94    45    90 1   
    95    45    91 1   
    96    46    47 1   
    97    47    92 1   
    98    47    93 1   
    99    47    94 1   
   100    54    96 1   
   101    95    97 2   
@<TRIPOS>SUBSTRUCTURE
     1 2R8         1 TEMP              0 ****  ****    0 ROOT
