@<TRIPOS>MOLECULE
2R9
   97   101     1     0     0
SMALL
abcg2


@<TRIPOS>ATOM
      1 C1           0.1780     0.9040    -1.2140 c5         1 2R9       0.027700
      2 C2          -1.1570     1.6330    -1.4140 c5         1 2R9      -0.088400
      3 C3          -2.0200     1.0990    -0.2830 c5         1 2R9       0.165300
      4 C7           1.1470     1.7450    -0.3920 c          1 2R9       0.597100
      5 C10         -4.2970     1.0830     0.3500 ca         1 2R9       0.575300
      6 C12         -4.8920     0.4160     2.4580 ca         1 2R9       0.268900
      7 C13         -6.2200     0.6670     2.2550 ca         1 2R9       0.083100
      8 C14         -6.6320     1.1770     0.9860 ca         1 2R9      -0.014000
      9 C15         -5.6480     1.3950     0.0010 ca         1 2R9      -0.066000
     10 C16          3.0190     3.2850    -0.5550 cx         1 2R9      -0.055600
     11 C19          4.2780     2.6500    -0.0570 c          1 2R9       0.671100
     12 C21          4.7070     5.9350    -2.6170 c2         1 2R9      -0.297000
     13 N23          4.4600     1.3500    -0.4560 ns         1 2R9      -0.576300
     14 C27          6.1860     0.2250     1.3270 cx         1 2R9      -0.427700
     15 C30         -7.9760     1.4720     0.6810 ca         1 2R9      -0.077000
     16 C31         -8.3190     1.9640    -0.5500 ca         1 2R9      -0.092000
     17 C32         -7.3240     2.1760    -1.5170 ca         1 2R9       0.115000
     18 C33         -6.0080     1.9010    -1.2620 ca         1 2R9      -0.065000
     19 C34          0.7880    -1.1450    -0.1150 c          1 2R9       0.607100
     20 C4          -1.6080    -0.3680    -0.1980 c5         1 2R9       0.081000
     21 N5          -0.1840    -0.2950    -0.4810 n          1 2R9      -0.394800
     22 O6          -3.3810     1.2970    -0.6050 os         1 2R9      -0.458300
     23 O8           1.0730     1.8420     0.8160 o          1 2R9      -0.570100
     24 N9           2.0620     2.4090    -1.1330 ns         1 2R9      -0.486900
     25 N11         -3.9510     0.6240     1.5030 nb         1 2R9      -0.736000
     26 C17          3.1260     4.6610    -1.2250 cx         1 2R9      -0.059500
     27 C18          2.5310     4.5240     0.1330 cx         1 2R9      -0.067400
     28 O22          5.0970     3.2340     0.6180 o          1 2R9      -0.562100
     29 S24          5.9440     0.5650    -0.3750 s6         1 2R9       1.263800
     30 O25          5.7250    -0.6780    -1.0930 o          1 2R9      -0.530000
     31 O26          6.9710     1.4820    -0.8290 o          1 2R9      -0.530000
     32 C28          6.9720    -1.0060     1.6690 cx         1 2R9      -0.068400
     33 C29          5.5040    -0.9640     1.9200 cx         1 2R9      -0.068400
     34 O35          1.9490    -0.9540    -0.4600 o          1 2R9      -0.628100
     35 C36          0.4240    -2.3710     0.7230 c3         1 2R9       0.068700
     36 C37          0.6910    -2.1730     2.2460 c3         1 2R9      -0.047000
     37 C38         -0.2190    -1.0830     2.8170 c3         1 2R9      -0.091100
     38 C39          0.3750    -3.4890     2.9620 c3         1 2R9      -0.091100
     39 C40          2.1470    -1.7980     2.5220 c3         1 2R9      -0.091100
     40 N41          1.1620    -3.4810     0.1750 ns         1 2R9      -0.501900
     41 C42          0.5740    -4.6340    -0.2130 c          1 2R9       0.654100
     42 O43         -0.6090    -4.8790    -0.0860 o          1 2R9      -0.558000
     43 O44          1.4840    -5.4490    -0.7460 os         1 2R9      -0.473100
     44 C45          1.1610    -6.7850    -1.2150 c3         1 2R9       0.225000
     45 C46          0.1390    -6.7440    -2.3450 c3         1 2R9      -0.108767
     46 C47          2.4960    -7.2910    -1.7480 c3         1 2R9      -0.108767
     47 C48          0.6980    -7.6670    -0.0620 c3         1 2R9      -0.108767
     48 O49         -7.1970     0.4770     3.1560 os         1 2R9      -0.333100
     49 C50         -6.8380    -0.0150     4.4330 c3         1 2R9       0.145900
     50 CL1         -7.7880     2.7980    -3.0640 cl         1 2R9      -0.194000
     51 H1           0.6300     0.6530    -2.1770 h1         1 2R9       0.076700
     52 H2          -1.0540     2.7180    -1.4050 hc         1 2R9       0.071700
     53 H3          -1.5860     1.3450    -2.3760 hc         1 2R9       0.071700
     54 H4          -1.7780     1.5960     0.6600 h1         1 2R9       0.090700
     55 H5          -4.5180     0.0330     3.3970 h4         1 2R9       0.027100
     56 H6           5.1100     5.4040    -0.6380 ha         1 2R9       0.199000
     57 H7           5.6420     6.4610    -2.7540 ha         1 2R9       0.164500
     58 H8           4.0310     5.9140    -3.4640 ha         1 2R9       0.164500
     59 H9           3.7100     0.8240    -0.8920 hn         1 2R9       0.367500
     60 H10          6.3180     1.1250     1.9150 h1         1 2R9       0.145700
     61 H11         -8.7500     1.3140     1.4180 ha         1 2R9       0.138000
     62 H12         -9.3520     2.1870    -0.7790 ha         1 2R9       0.133000
     63 H13         -5.2560     2.0700    -2.0200 ha         1 2R9       0.145000
     64 H14         -1.8130    -0.7890     0.7790 h1         1 2R9       0.074700
     65 H15         -2.1330    -0.9610    -0.9550 h1         1 2R9       0.074700
     66 H16          2.0800     2.2710    -2.1330 hn         1 2R9       0.326500
     67 H17          2.4160     4.7570    -2.0390 hc         1 2R9       0.077700
     68 H18          1.4610     4.6340     0.2400 hc         1 2R9       0.094700
     69 H19          3.1110     4.8720     0.9780 hc         1 2R9       0.094700
     70 H20          7.3290    -1.6320     0.8630 hc         1 2R9       0.087450
     71 H21          7.6530    -0.9120     2.5030 hc         1 2R9       0.087450
     72 H22          5.1440    -0.8490     2.9340 hc         1 2R9       0.087450
     73 H23          4.8670    -1.5550     1.2760 hc         1 2R9       0.087450
     74 H24         -0.6340    -2.6090     0.6060 h1         1 2R9       0.091700
     75 H25         -1.2740    -1.3570     2.7440 hc         1 2R9       0.041256
     76 H26          0.0010    -0.9450     3.8770 hc         1 2R9       0.041256
     77 H27         -0.0780    -0.1170     2.3290 hc         1 2R9       0.041256
     78 H28          1.0600    -4.2870     2.6710 hc         1 2R9       0.041256
     79 H29          0.4740    -3.3530     4.0400 hc         1 2R9       0.041256
     80 H30         -0.6430    -3.8270     2.7610 hc         1 2R9       0.041256
     81 H31          2.4080    -0.8190     2.1220 hc         1 2R9       0.041256
     82 H32          2.3200    -1.7710     3.5990 hc         1 2R9       0.041256
     83 H33          2.8400    -2.5310     2.1030 hc         1 2R9       0.041256
     84 H34          2.1440    -3.3490    -0.0120 hn         1 2R9       0.345500
     85 H35          0.4550    -6.0570    -3.1330 hc         1 2R9       0.049478
     86 H36          0.0600    -7.7370    -2.7900 hc         1 2R9       0.049478
     87 H37         -0.8500    -6.4520    -2.0030 hc         1 2R9       0.049478
     88 H38          3.2610    -7.2930    -0.9700 hc         1 2R9       0.049478
     89 H39          2.3860    -8.3130    -2.1110 hc         1 2R9       0.049478
     90 H40          2.8490    -6.6780    -2.5790 hc         1 2R9       0.049478
     91 H41         -0.2650    -7.3580     0.3400 hc         1 2R9       0.049478
     92 H42          0.5950    -8.6930    -0.4170 hc         1 2R9       0.049478
     93 H43          1.4290    -7.6700     0.7480 hc         1 2R9       0.049478
     94 H44         -7.7580    -0.0940     5.0050 h1         1 2R9       0.045367
     95 H45         -6.3730    -1.0020     4.3690 h1         1 2R9       0.045367
     96 H46         -6.1550     0.6640     4.9500 h1         1 2R9       0.045367
     97 C20          4.4070     5.3510    -1.4610 c2         1 2R9      -0.200200
@<TRIPOS>BOND
     1     1     2 1   
     2     1     4 1   
     3     1    21 1   
     4     1    51 1   
     5     2     3 1   
     6     2    52 1   
     7     2    53 1   
     8     3    20 1   
     9     3    22 1   
    10     3    54 1   
    11     4    23 2   
    12     4    24 1   
    13     5     9 ar  
    14     5    22 1   
    15     5    25 ar  
    16     6     7 ar  
    17     6    25 ar  
    18     6    55 1   
    19     7     8 ar  
    20     7    48 1   
    21     8     9 ar  
    22     8    15 ar  
    23     9    18 ar  
    24    10    11 1   
    25    10    24 1   
    26    10    26 1   
    27    10    27 1   
    28    11    13 1   
    29    11    28 2   
    30    12    57 1   
    31    12    58 1   
    32    12    97 2   
    33    13    29 1   
    34    13    59 1   
    35    14    29 1   
    36    14    32 1   
    37    14    33 1   
    38    14    60 1   
    39    15    16 ar  
    40    15    61 1   
    41    16    17 ar  
    42    16    62 1   
    43    17    18 ar  
    44    17    50 1   
    45    18    63 1   
    46    19    21 1   
    47    19    34 2   
    48    19    35 1   
    49    20    21 1   
    50    20    64 1   
    51    20    65 1   
    52    24    66 1   
    53    26    27 1   
    54    26    67 1   
    55    26    97 1   
    56    27    68 1   
    57    27    69 1   
    58    29    30 2   
    59    29    31 2   
    60    32    33 1   
    61    32    70 1   
    62    32    71 1   
    63    33    72 1   
    64    33    73 1   
    65    35    36 1   
    66    35    40 1   
    67    35    74 1   
    68    36    37 1   
    69    36    38 1   
    70    36    39 1   
    71    37    75 1   
    72    37    76 1   
    73    37    77 1   
    74    38    78 1   
    75    38    79 1   
    76    38    80 1   
    77    39    81 1   
    78    39    82 1   
    79    39    83 1   
    80    40    41 1   
    81    40    84 1   
    82    41    42 2   
    83    41    43 1   
    84    43    44 1   
    85    44    45 1   
    86    44    46 1   
    87    44    47 1   
    88    45    85 1   
    89    45    86 1   
    90    45    87 1   
    91    46    88 1   
    92    46    89 1   
    93    46    90 1   
    94    47    91 1   
    95    47    92 1   
    96    47    93 1   
    97    48    49 1   
    98    49    94 1   
    99    49    95 1   
   100    49    96 1   
   101    56    97 1   
@<TRIPOS>SUBSTRUCTURE
     1 2R9         1 TEMP              0 ****  ****    0 ROOT
