@<TRIPOS>MOLECULE
2R9
   97   101     1     0     0
SMALL
No Charge or Current Charge


@<TRIPOS>ATOM
      1 C1           0.4830     1.2540    -0.9230 c5         1 2R9       0.027700
      2 C2          -0.8130     2.0890    -1.1850 c5         1 2R9      -0.088400
      3 C3          -1.7520     1.6170    -0.0510 c5         1 2R9       0.165300
      4 C7           1.4550     2.0560    -0.0030 c          1 2R9       0.597100
      5 C10         -4.0350     1.4720     0.4690 ca         1 2R9       0.575300
      6 C12         -4.7320     1.2450     2.6750 ca         1 2R9       0.268900
      7 C13         -5.9390     0.6050     2.2990 ca         1 2R9       0.083100
      8 C14         -6.1880     0.4120     0.9240 ca         1 2R9      -0.014000
      9 C15         -5.2210     0.8600    -0.0080 ca         1 2R9      -0.066000
     10 C16          3.1450     3.8950    -0.2230 cx         1 2R9      -0.055600
     11 C19          4.4190     3.2650     0.3510 c          1 2R9       0.671100
     12 C21          5.4780     5.5940    -2.0730 c2         1 2R9      -0.297000
     13 N23          5.1160     2.5440    -0.5600 ns         1 2R9      -0.576300
     14 C27          5.9690     0.2750     0.7330 cx         1 2R9      -0.427700
     15 C30         -7.3700    -0.2090     0.4660 ca         1 2R9      -0.077000
     16 C31         -7.5880    -0.3840    -0.9110 ca         1 2R9      -0.092000
     17 C32         -6.6310     0.0600    -1.8350 ca         1 2R9       0.115000
     18 C33         -5.4520     0.6790    -1.3910 ca         1 2R9      -0.065000
     19 C34          0.7080    -1.1620    -0.1840 c          1 2R9       0.607100
     20 C4          -1.5280     0.0790    -0.1010 c5         1 2R9       0.081000
     21 N5          -0.0600     0.0210    -0.2800 n          1 2R9      -0.394800
     22 O6          -3.1150     1.9320    -0.4590 os         1 2R9      -0.458300
     23 O8           1.6380     1.9030     1.1970 o          1 2R9      -0.570100
     24 N9           2.1400     2.9910    -0.7580 ns         1 2R9      -0.486900
     25 N11         -3.8050     1.6740     1.7880 nb         1 2R9      -0.736000
     26 C17          3.2790     5.2300    -0.9320 cx         1 2R9      -0.059500
     27 C18          2.6280     5.1650     0.4270 cx         1 2R9      -0.067400
     28 O22          4.7600     3.3830     1.5190 o          1 2R9      -0.562100
     29 S24          6.5170     1.6870    -0.3270 s6         1 2R9       1.263800
     30 O25          6.9210     1.1520    -1.6310 o          1 2R9      -0.530000
     31 O26          7.4470     2.5020     0.4610 o          1 2R9      -0.530000
     32 C28          6.6640    -1.0710     0.6680 cx         1 2R9      -0.068400
     33 C29          5.2560    -0.9200     0.1290 cx         1 2R9      -0.068400
     34 O35          1.8070    -1.2090    -0.7300 o          1 2R9      -0.628100
     35 C36          0.1710    -2.3760     0.6530 c3         1 2R9       0.068700
     36 C37          0.4960    -2.2920     2.2000 c3         1 2R9      -0.047000
     37 C38         -0.2170    -1.0870     2.8710 c3         1 2R9      -0.091100
     38 C39          0.0110    -3.5790     2.9280 c3         1 2R9      -0.091100
     39 C40          2.0260    -2.1430     2.4350 c3         1 2R9      -0.091100
     40 N41          0.7020    -3.6220     0.0490 ns         1 2R9      -0.501900
     41 C42         -0.0160    -4.7560    -0.1860 c          1 2R9       0.654100
     42 O43         -1.2040    -4.8890     0.0580 o          1 2R9      -0.558000
     43 O44          0.8250    -5.6780    -0.7450 os         1 2R9      -0.473100
     44 C45          0.3890    -7.0090    -1.1080 c3         1 2R9       0.225000
     45 C46         -0.7020    -6.9190    -2.2060 c3         1 2R9      -0.108767
     46 C47          1.6570    -7.6810    -1.6790 c3         1 2R9      -0.108767
     47 C48         -0.0850    -7.7650     0.1600 c3         1 2R9      -0.108767
     48 O49         -6.8730     0.1720     3.2290 os         1 2R9      -0.333100
     49 C50         -6.6750     0.3380     4.6450 c3         1 2R9       0.145900
     50 Cl1         -6.9070    -0.1620    -3.5580 cl         1 2R9      -0.194000
     51 H1           1.0050     1.0240    -1.8620 h1         1 2R9       0.076700
     52 H2          -0.6450     3.1720    -1.1660 hc         1 2R9       0.071700
     53 H3          -1.2340     1.8470    -2.1680 hc         1 2R9       0.071700
     54 H4          -1.4850     2.0670     0.9160 h1         1 2R9       0.090700
     55 H5          -4.4890     1.4270     3.7200 h4         1 2R9       0.027100
     56 H6           4.8640     6.6330    -0.3370 ha         1 2R9       0.199000
     57 H7           6.4430     6.0990    -2.1480 ha         1 2R9       0.164500
     58 H8           5.2530     4.8550    -2.8430 ha         1 2R9       0.164500
     59 H9           4.7730     2.4650    -1.4990 hn         1 2R9       0.367500
     60 H10          5.6380     0.6660     1.6920 h1         1 2R9       0.145700
     61 H11         -8.1220    -0.5580     1.1700 ha         1 2R9       0.138000
     62 H12         -8.4990    -0.8630    -1.2620 ha         1 2R9       0.133000
     63 H13         -4.7250     1.0130    -2.1270 ha         1 2R9       0.145000
     64 H14         -1.8750    -0.4020     0.8190 h1         1 2R9       0.074700
     65 H15         -2.0460    -0.3810    -0.9530 h1         1 2R9       0.074700
     66 H16          1.9070     3.0340    -1.7450 hn         1 2R9       0.326500
     67 H17          2.6110     5.4130    -1.7720 hc         1 2R9       0.077700
     68 H18          1.5520     5.3080     0.4790 hc         1 2R9       0.094700
     69 H19          3.1750     5.5680     1.2760 hc         1 2R9       0.094700
     70 H20          7.4670    -1.2090    -0.0530 hc         1 2R9       0.087450
     71 H21          6.7920    -1.6240     1.5960 hc         1 2R9       0.087450
     72 H22          4.4490    -1.3750     0.6970 hc         1 2R9       0.087450
     73 H23          5.1220    -0.9570    -0.9500 hc         1 2R9       0.087450
     74 H24         -0.9190    -2.3930     0.5320 h1         1 2R9       0.091700
     75 H25         -1.3070    -1.1810     2.7940 hc         1 2R9       0.041256
     76 H26          0.0290    -1.0350     3.9390 hc         1 2R9       0.041256
     77 H27          0.0860    -0.1340     2.4240 hc         1 2R9       0.041256
     78 H28          0.5650    -4.4650     2.5970 hc         1 2R9       0.041256
     79 H29          0.1550    -3.4950     4.0130 hc         1 2R9       0.041256
     80 H30         -1.0560    -3.7540     2.7450 hc         1 2R9       0.041256
     81 H31          2.3980    -1.1950     2.0310 hc         1 2R9       0.041256
     82 H32          2.2590    -2.1550     3.5070 hc         1 2R9       0.041256
     83 H33          2.5850    -2.9600     1.9650 hc         1 2R9       0.041256
     84 H34          1.6690    -3.6440    -0.2470 hn         1 2R9       0.345500
     85 H35         -0.3930    -6.2370    -3.0070 hc         1 2R9       0.049478
     86 H36         -0.8770    -7.9060    -2.6510 hc         1 2R9       0.049478
     87 H37         -1.6600    -6.5710    -1.8050 hc         1 2R9       0.049478
     88 H38          2.4550    -7.7120    -0.9270 hc         1 2R9       0.049478
     89 H39          1.4460    -8.7110    -1.9920 hc         1 2R9       0.049478
     90 H40          2.0310    -7.1310    -2.5510 hc         1 2R9       0.049478
     91 H41         -1.0530    -7.3980     0.5180 hc         1 2R9       0.049478
     92 H42         -0.2030    -8.8340    -0.0550 hc         1 2R9       0.049478
     93 H43          0.6460    -7.6620     0.9710 hc         1 2R9       0.049478
     94 H44         -7.5280    -0.0730     5.1980 h1         1 2R9       0.045367
     95 H45         -5.7700    -0.1870     4.9770 h1         1 2R9       0.045367
     96 H46         -6.5820     1.4010     4.9040 h1         1 2R9       0.045367
     97 C20          4.6120     5.8770    -1.0880 c2         1 2R9      -0.200200
@<TRIPOS>BOND
     1     1     2 1   
     2     1     4 1   
     3     1    21 1   
     4     1    51 1   
     5     2     3 1   
     6     2    52 1   
     7     2    53 1   
     8     3    20 1   
     9     3    22 1   
    10     3    54 1   
    11     4    23 2   
    12     4    24 1   
    13     5     9 ar  
    14     5    22 1   
    15     5    25 ar  
    16     6     7 ar  
    17     6    25 ar  
    18     6    55 1   
    19     7     8 ar  
    20     7    48 1   
    21     8     9 ar  
    22     8    15 ar  
    23     9    18 ar  
    24    10    11 1   
    25    10    24 1   
    26    10    26 1   
    27    10    27 1   
    28    11    13 1   
    29    11    28 2   
    30    12    57 1   
    31    12    58 1   
    32    12    97 2   
    33    13    29 1   
    34    13    59 1   
    35    14    29 1   
    36    14    32 1   
    37    14    33 1   
    38    14    60 1   
    39    15    16 ar  
    40    15    61 1   
    41    16    17 ar  
    42    16    62 1   
    43    17    18 ar  
    44    17    50 1   
    45    18    63 1   
    46    19    21 1   
    47    19    34 2   
    48    19    35 1   
    49    20    21 1   
    50    20    64 1   
    51    20    65 1   
    52    24    66 1   
    53    26    27 1   
    54    26    67 1   
    55    26    97 1   
    56    27    68 1   
    57    27    69 1   
    58    29    30 2   
    59    29    31 2   
    60    32    33 1   
    61    32    70 1   
    62    32    71 1   
    63    33    72 1   
    64    33    73 1   
    65    35    36 1   
    66    35    40 1   
    67    35    74 1   
    68    36    37 1   
    69    36    38 1   
    70    36    39 1   
    71    37    75 1   
    72    37    76 1   
    73    37    77 1   
    74    38    78 1   
    75    38    79 1   
    76    38    80 1   
    77    39    81 1   
    78    39    82 1   
    79    39    83 1   
    80    40    41 1   
    81    40    84 1   
    82    41    42 2   
    83    41    43 1   
    84    43    44 1   
    85    44    45 1   
    86    44    46 1   
    87    44    47 1   
    88    45    85 1   
    89    45    86 1   
    90    45    87 1   
    91    46    88 1   
    92    46    89 1   
    93    46    90 1   
    94    47    91 1   
    95    47    92 1   
    96    47    93 1   
    97    48    49 1   
    98    49    94 1   
    99    49    95 1   
   100    49    96 1   
   101    56    97 1   
@<TRIPOS>SUBSTRUCTURE
     1 2R9         1 TEMP              0 ****  ****    0 ROOT
