@<TRIPOS>MOLECULE
2RA
   14    13     1     0     0
SMALL
bcc


@<TRIPOS>ATOM
      1 C           -3.8940    64.1940    15.2980 c          1 2RA       0.933600
      2 N           -5.7010    65.5280    16.3410 n8         1 2RA      -0.877800
      3 O           -4.7990    63.6250    14.6560 o          1 2RA      -0.837800
      4 CA          -4.2740    65.4840    16.0630 c3         1 2RA       0.025500
      5 CB          -3.7420    66.6850    15.2690 c3         1 2RA       0.112800
      6 NG          -4.0230    67.9470    15.9440 n8         1 2RA      -0.893800
      7 OXT         -2.6920    63.8610    15.3560 o          1 2RA      -0.837800
      8 H           -5.9580    66.4280    16.7290 hn         1 2RA       0.317800
      9 H2          -6.2120    65.4220    15.4730 hn         1 2RA       0.317800
     10 HA          -3.7490    65.4800    17.0250 h1         1 2RA       0.054700
     11 HB1         -2.6580    66.5850    15.1790 h1         1 2RA       0.032200
     12 HB2         -4.1480    66.6420    14.2470 h1         1 2RA       0.032200
     13 HG1         -3.5020    68.6890    15.4940 hn         1 2RA       0.309800
     14 HG2         -4.9960    68.1940    15.8150 hn         1 2RA       0.309800
@<TRIPOS>BOND
     1     1     3 1   
     2     1     4 1   
     3     1     7 1   
     4     2     4 1   
     5     2     8 1   
     6     2     9 1   
     7     4     5 1   
     8     4    10 1   
     9     5     6 1   
    10     5    11 1   
    11     5    12 1   
    12     6    13 1   
    13     6    14 1   
@<TRIPOS>SUBSTRUCTURE
     1 2RA         1 TEMP              0 ****  ****    0 ROOT
