@<TRIPOS>MOLECULE
2RB
   35    36     1     0     0
SMALL
No Charge or Current Charge


@<TRIPOS>ATOM
      1 CAA         -9.6110     1.7590    -0.4530 c3         1 2RB       0.146900
      2 OAO         -8.9900     0.7600     0.3750 os         1 2RB      -0.334100
      3 CAR         -7.6370     0.4930     0.3170 ca         1 2RB       0.173100
      4 CAI         -7.1270    -0.4990     1.1640 ca         1 2RB      -0.185000
      5 CAK         -5.7590    -0.8160     1.1520 ca         1 2RB      -0.028000
      6 CAH         -6.7620     1.1740    -0.5530 ca         1 2RB      -0.185000
      7 CAJ         -5.3910     0.8610    -0.5700 ca         1 2RB      -0.028000
      8 CAV         -4.8690    -0.1420     0.2850 ca         1 2RB      -0.201600
      9 CAP         -3.3980    -0.5120     0.3010 c          1 2RB       0.640700
     10 OAB         -2.9620    -1.3810     1.0500 o          1 2RB      -0.549100
     11 NAN         -2.5640     0.1870    -0.5740 ns         1 2RB      -0.268900
     12 NAM         -1.1970    -0.0310    -0.6920 n2         1 2RB      -0.492300
     13 CAG         -0.3830     0.5600     0.1310 ce         1 2RB       0.422800
     14 CAS          1.0930     0.3250     0.0930 ca         1 2RB      -0.297900
     15 CAL          1.8890     1.0410     1.0100 ca         1 2RB       0.030000
     16 CAQ          3.2820     0.8730     1.0310 ca         1 2RB      -0.123900
     17 BrAE         4.3190     1.8730     2.3010 br         1 2RB      -0.069100
     18 CAT          3.8980    -0.0140     0.1330 ca         1 2RB       0.258100
     19 OAC          5.2520    -0.1790     0.1520 oh         1 2RB      -0.502100
     20 CAW          3.1200    -0.7350    -0.7870 ca         1 2RB      -0.201900
     21 BrAF         3.9660    -1.9550    -2.0200 br         1 2RB      -0.068100
     22 CAU          1.7220    -0.5660    -0.8070 ca         1 2RB       0.282100
     23 OAD          0.9850    -1.2740    -1.7040 oh         1 2RB      -0.514100
     24 HAA         -9.4790     1.5220    -1.5160 h1         1 2RB       0.045367
     25 HAAA       -10.6880     1.8070    -0.2460 h1         1 2RB       0.045367
     26 HAAB        -9.1830     2.7500    -0.2560 h1         1 2RB       0.045367
     27 HAI         -7.7980    -1.0270     1.8370 ha         1 2RB       0.129000
     28 HAK         -5.3940    -1.5920     1.8230 ha         1 2RB       0.123500
     29 HAH         -7.1250     1.9490    -1.2220 ha         1 2RB       0.129000
     30 HAJ         -4.7520     1.4110    -1.2560 ha         1 2RB       0.123500
     31 HNAN        -3.0230     0.8870    -1.1490 hn         1 2RB       0.313500
     32 HAG         -0.7530     1.2570     0.8870 h4         1 2RB      -0.007200
     33 HAL          1.4280     1.7330     1.7120 ha         1 2RB       0.128000
     34 HOAC         5.4750    -0.8330    -0.5430 ho         1 2RB       0.490000
     35 HOAD         0.0470    -1.0040    -1.5490 ho         1 2RB       0.533000
@<TRIPOS>BOND
     1     1     2 1   
     2     1    24 1   
     3     1    25 1   
     4     1    26 1   
     5     2     3 1   
     6     3     4 ar  
     7     3     6 ar  
     8     4     5 ar  
     9     4    27 1   
    10     5     8 ar  
    11     5    28 1   
    12     6     7 ar  
    13     6    29 1   
    14     7     8 ar  
    15     7    30 1   
    16     8     9 1   
    17     9    10 2   
    18     9    11 1   
    19    11    12 1   
    20    11    31 1   
    21    12    13 2   
    22    13    14 1   
    23    13    32 1   
    24    14    15 ar  
    25    14    22 ar  
    26    15    16 ar  
    27    15    33 1   
    28    16    17 1   
    29    16    18 ar  
    30    18    19 1   
    31    18    20 ar  
    32    19    34 1   
    33    20    21 1   
    34    20    22 ar  
    35    22    23 1   
    36    23    35 1   
@<TRIPOS>SUBSTRUCTURE
     1 2RB         1 TEMP              0 ****  ****    0 ROOT
