@<TRIPOS>MOLECULE
2RB
   35    36     1     0     0
SMALL
abcg2


@<TRIPOS>ATOM
      1 CAA         -9.3910     1.8810    -0.1770 c3         1 2RB       0.146900
      2 OAO         -8.9090     0.5840     0.1310 os         1 2RB      -0.334100
      3 CAR         -7.5920     0.3530     0.0690 ca         1 2RB       0.173100
      4 CAI         -7.1770    -0.9510     0.3650 ca         1 2RB      -0.185000
      5 CAK         -5.8410    -1.2810     0.3180 ca         1 2RB      -0.028000
      6 CAH         -6.6400     1.3120    -0.2720 ca         1 2RB      -0.185000
      7 CAJ         -5.2970     0.9680    -0.3040 ca         1 2RB      -0.028000
      8 CAV         -4.8740    -0.3240    -0.0050 ca         1 2RB      -0.201600
      9 CAP         -3.4560    -0.7510    -0.0550 c          1 2RB       0.640700
     10 OAB         -3.1230    -1.9110    -0.2150 o          1 2RB      -0.549100
     11 NAN         -2.5390     0.2470     0.1030 ns         1 2RB      -0.268900
     12 NAM         -1.2350    -0.0420     0.0140 n2         1 2RB      -0.492300
     13 CAG         -0.3650     0.8680     0.2220 ce         1 2RB       0.422800
     14 CAS          1.0480     0.5560     0.1240 ca         1 2RB      -0.297900
     15 CAL          1.9840     1.5650     0.3390 ca         1 2RB       0.030000
     16 CAQ          3.3350     1.3170     0.2580 ca         1 2RB      -0.123900
     17 BRAE         4.5720     2.7030     0.5510 br         1 2RB      -0.069100
     18 CAT          3.8110     0.0340    -0.0450 ca         1 2RB       0.258100
     19 OAC          5.1260    -0.1380    -0.1060 oh         1 2RB      -0.502100
     20 CAW          2.8730    -0.9780    -0.2620 ca         1 2RB      -0.201900
     21 BRAF         3.4530    -2.7180    -0.6760 br         1 2RB      -0.068100
     22 CAU          1.4990    -0.7430    -0.1840 ca         1 2RB       0.282100
     23 OAD          0.6730    -1.7540    -0.4010 oh         1 2RB      -0.514100
     24 HAA         -9.1450     2.1730    -1.2010 h1         1 2RB       0.045367
     25 HAAA       -10.4720     1.8390    -0.0740 h1         1 2RB       0.045367
     26 HAAB        -9.0000     2.6330     0.5110 h1         1 2RB       0.045367
     27 HAI         -7.9160    -1.6970     0.6280 ha         1 2RB       0.129000
     28 HAK         -5.5400    -2.2950     0.5450 ha         1 2RB       0.123500
     29 HAH         -6.9210     2.3240    -0.5270 ha         1 2RB       0.129000
     30 HAJ         -4.5920     1.7340    -0.6000 ha         1 2RB       0.123500
     31 HNAN        -2.8210     1.1830     0.3670 hn         1 2RB       0.313500
     32 HAG         -0.6410     1.8920     0.4780 h4         1 2RB      -0.007200
     33 HAL          1.6300     2.5600     0.5770 ha         1 2RB       0.128000
     34 HOAC         5.3710    -1.0470    -0.3250 ho         1 2RB       0.490000
     35 HOAD        -0.2580    -1.4310    -0.3140 ho         1 2RB       0.533000
@<TRIPOS>BOND
     1     1     2 1   
     2     1    24 1   
     3     1    25 1   
     4     1    26 1   
     5     2     3 1   
     6     3     4 ar  
     7     3     6 ar  
     8     4     5 ar  
     9     4    27 1   
    10     5     8 ar  
    11     5    28 1   
    12     6     7 ar  
    13     6    29 1   
    14     7     8 ar  
    15     7    30 1   
    16     8     9 1   
    17     9    10 2   
    18     9    11 1   
    19    11    12 1   
    20    11    31 1   
    21    12    13 2   
    22    13    14 1   
    23    13    32 1   
    24    14    15 ar  
    25    14    22 ar  
    26    15    16 ar  
    27    15    33 1   
    28    16    17 1   
    29    16    18 ar  
    30    18    19 1   
    31    18    20 ar  
    32    19    34 1   
    33    20    21 1   
    34    20    22 ar  
    35    22    23 1   
    36    23    35 1   
@<TRIPOS>SUBSTRUCTURE
     1 2RB         1 TEMP              0 ****  ****    0 ROOT
