@<TRIPOS>MOLECULE
2RD
   47    47     1     0     0
SMALL
No Charge or Current Charge


@<TRIPOS>ATOM
      1 CAA         11.8740    -0.3880    -0.1710 c3         1 2RD      -0.088100
      2 CAD         10.5770     0.4370    -0.2780 c3         1 2RD      -0.075400
      3 CAE          9.3030    -0.4070    -0.0520 c3         1 2RD      -0.076400
      4 CAF          8.0030     0.4200    -0.1600 c3         1 2RD      -0.074400
      5 CAG          6.7300    -0.4240     0.0660 c3         1 2RD      -0.075400
      6 CAH          5.4300     0.4030    -0.0410 c3         1 2RD      -0.074400
      7 CAI          4.1560    -0.4410     0.1840 c3         1 2RD      -0.075400
      8 CAJ          2.8560     0.3860     0.0770 c3         1 2RD      -0.074400
      9 CAK          1.5830    -0.4580     0.3020 c3         1 2RD      -0.076400
     10 CAL          0.2830     0.3700     0.1950 c3         1 2RD      -0.074400
     11 CAM         -0.9910    -0.4740     0.4200 c3         1 2RD      -0.060400
     12 CAN         -2.2840     0.3580     0.3110 c3         1 2RD      -0.026400
     13 SAR         -3.7650    -0.7070     0.5860 ss         1 2RD       0.015000
     14 CAU         -5.0920     0.4250     0.3190 cc         1 2RD      -0.230000
     15 NAQ         -5.0710     1.7490     0.6560 na         1 2RD      -0.047200
     16 NAO         -6.1790     2.3670     0.1640 nc         1 2RD      -0.265800
     17 NAP         -6.8550     1.4590    -0.5030 nd         1 2RD      -0.333000
     18 CAT         -6.2060     0.2220    -0.4670 cd         1 2RD       0.194500
     19 CAS         -6.6400    -1.0710    -1.1480 c          1 2RD       0.633500
     20 OAC         -5.9860    -2.0990    -1.0180 o          1 2RD      -0.702500
     21 OAB         -7.6670    -1.0550    -1.8200 o          1 2RD      -0.702500
     22 HAA1        12.7490     0.2520    -0.3380 hc         1 2RD       0.029700
     23 HAA2        11.9650    -0.8410     0.8240 hc         1 2RD       0.029700
     24 HAA3        11.8870    -1.1890    -0.9200 hc         1 2RD       0.029700
     25 HAD1        10.6100     1.2500     0.4590 hc         1 2RD       0.035700
     26 HAD2        10.5330     0.9050    -1.2690 hc         1 2RD       0.035700
     27 HAE1         9.2750    -1.2200    -0.7890 hc         1 2RD       0.036700
     28 HAE2         9.3520    -0.8740     0.9390 hc         1 2RD       0.036700
     29 HAF1         8.0320     1.2330     0.5770 hc         1 2RD       0.036200
     30 HAF2         7.9550     0.8880    -1.1510 hc         1 2RD       0.036200
     31 HAG1         6.7010    -1.2360    -0.6710 hc         1 2RD       0.036700
     32 HAG2         6.7780    -0.8910     1.0570 hc         1 2RD       0.036700
     33 HAH1         5.4580     1.2160     0.6950 hc         1 2RD       0.035700
     34 HAH2         5.3810     0.8710    -1.0330 hc         1 2RD       0.035700
     35 HAI1         4.1280    -1.2530    -0.5530 hc         1 2RD       0.037200
     36 HAI2         4.2050    -0.9080     1.1760 hc         1 2RD       0.037200
     37 HAJ1         2.8850     1.1990     0.8130 hc         1 2RD       0.035700
     38 HAJ2         2.8080     0.8540    -0.9150 hc         1 2RD       0.035700
     39 HAK1         1.5540    -1.2700    -0.4350 hc         1 2RD       0.038700
     40 HAK2         1.6310    -0.9250     1.2930 hc         1 2RD       0.038700
     41 HAL1         0.3110     1.1820     0.9310 hc         1 2RD       0.034700
     42 HAL2         0.2340     0.8370    -0.7970 hc         1 2RD       0.034700
     43 HAM1        -1.0230    -1.2860    -0.3180 hc         1 2RD       0.051200
     44 HAM2        -0.9460    -0.9400     1.4120 hc         1 2RD       0.051200
     45 HAN1        -2.2730     1.1580     1.0610 h1         1 2RD       0.047200
     46 HAN2        -2.3540     0.8090    -0.6870 h1         1 2RD       0.047200
     47 HNAQ        -4.3710     2.2510     1.1980 hn         1 2RD       0.345000
@<TRIPOS>BOND
     1     1     2 1   
     2     1    22 1   
     3     1    23 1   
     4     1    24 1   
     5     2     3 1   
     6     2    25 1   
     7     2    26 1   
     8     3     4 1   
     9     3    27 1   
    10     3    28 1   
    11     4     5 1   
    12     4    29 1   
    13     4    30 1   
    14     5     6 1   
    15     5    31 1   
    16     5    32 1   
    17     6     7 1   
    18     6    33 1   
    19     6    34 1   
    20     7     8 1   
    21     7    35 1   
    22     7    36 1   
    23     8     9 1   
    24     8    37 1   
    25     8    38 1   
    26     9    10 1   
    27     9    39 1   
    28     9    40 1   
    29    10    11 1   
    30    10    41 1   
    31    10    42 1   
    32    11    12 1   
    33    11    43 1   
    34    11    44 1   
    35    12    13 1   
    36    12    45 1   
    37    12    46 1   
    38    13    14 1   
    39    14    15 1   
    40    14    18 2   
    41    15    16 1   
    42    15    47 1   
    43    16    17 2   
    44    17    18 1   
    45    18    19 1   
    46    19    20 1   
    47    19    21 1   
@<TRIPOS>SUBSTRUCTURE
     1 2RD         1 TEMP              0 ****  ****    0 ROOT
