@<TRIPOS>MOLECULE
2RD
   47    47     1     0     0
SMALL
abcg2


@<TRIPOS>ATOM
      1 CAA         11.7810    -0.4740    -0.0410 c3         1 2RD      -0.088100
      2 CAD         10.5320     0.3970    -0.0350 c3         1 2RD      -0.075400
      3 CAE          9.2450    -0.4210    -0.0130 c3         1 2RD      -0.076400
      4 CAF          7.9840     0.4340    -0.0060 c3         1 2RD      -0.074400
      5 CAG          6.7030    -0.3910     0.0180 c3         1 2RD      -0.075400
      6 CAH          5.4360     0.4560     0.0250 c3         1 2RD      -0.074400
      7 CAI          4.1610    -0.3770     0.0460 c3         1 2RD      -0.075400
      8 CAJ          2.8880     0.4610     0.0510 c3         1 2RD      -0.074400
      9 CAK          1.6210    -0.3850     0.0640 c3         1 2RD      -0.076400
     10 CAL          0.3420     0.4440     0.0630 c3         1 2RD      -0.074400
     11 CAM         -0.9110    -0.4240     0.0620 c3         1 2RD      -0.060400
     12 CAN         -2.1830     0.4140     0.0510 c3         1 2RD      -0.026400
     13 SAR         -3.6050    -0.7240     0.0210 ss         1 2RD       0.015000
     14 CAU         -4.9360     0.3830    -0.0260 cc         1 2RD      -0.230000
     15 NAQ         -4.8810     1.7230    -0.0060 na         1 2RD      -0.047200
     16 NAO         -6.0990     2.2600    -0.0530 nc         1 2RD      -0.265800
     17 NAP         -6.9420     1.2950    -0.1020 nd         1 2RD      -0.333000
     18 CAT         -6.2890     0.1120    -0.0880 cd         1 2RD       0.194500
     19 CAS         -6.9130    -1.2450    -0.1310 c          1 2RD       0.633500
     20 OAC         -6.0880    -2.1830    -0.1060 o          1 2RD      -0.702500
     21 OAB         -8.1510    -1.3150    -0.1850 o          1 2RD      -0.702500
     22 HAA1        12.6920     0.1250    -0.0550 hc         1 2RD       0.029700
     23 HAA2        11.8180    -1.1130     0.8440 hc         1 2RD       0.029700
     24 HAA3        11.8010    -1.1250    -0.9170 hc         1 2RD       0.029700
     25 HAD1        10.5520     1.0620     0.8340 hc         1 2RD       0.035700
     26 HAD2        10.5320     1.0480    -0.9150 hc         1 2RD       0.035700
     27 HAE1         9.2270    -1.0880    -0.8830 hc         1 2RD       0.036700
     28 HAE2         9.2470    -1.0730     0.8670 hc         1 2RD       0.036700
     29 HAF1         8.0020     1.1010     0.8630 hc         1 2RD       0.036200
     30 HAF2         7.9810     1.0850    -0.8870 hc         1 2RD       0.036200
     31 HAG1         6.6860    -1.0590    -0.8510 hc         1 2RD       0.036700
     32 HAG2         6.7080    -1.0430     0.8990 hc         1 2RD       0.036700
     33 HAH1         5.4500     1.1230     0.8950 hc         1 2RD       0.035700
     34 HAH2         5.4300     1.1080    -0.8560 hc         1 2RD       0.035700
     35 HAI1         4.1510    -1.0450    -0.8230 hc         1 2RD       0.037200
     36 HAI2         4.1690    -1.0290     0.9270 hc         1 2RD       0.037200
     37 HAJ1         2.8930     1.1250     0.9230 hc         1 2RD       0.035700
     38 HAJ2         2.8800     1.1140    -0.8280 hc         1 2RD       0.035700
     39 HAK1         1.6210    -1.0500    -0.8060 hc         1 2RD       0.038700
     40 HAK2         1.6290    -1.0370     0.9450 hc         1 2RD       0.038700
     41 HAL1         0.3310     1.1020     0.9380 hc         1 2RD       0.034700
     42 HAL2         0.3330     1.0990    -0.8150 hc         1 2RD       0.034700
     43 HAM1        -0.8970    -1.0800    -0.8140 hc         1 2RD       0.051200
     44 HAM2        -0.9070    -1.0730     0.9420 hc         1 2RD       0.051200
     45 HAN1        -2.2260     1.0450     0.9410 h1         1 2RD       0.047200
     46 HAN2        -2.2030     1.0540    -0.8340 h1         1 2RD       0.047200
     47 HNAQ        -4.0740     2.3270     0.0390 hn         1 2RD       0.345000
@<TRIPOS>BOND
     1     1     2 1   
     2     1    22 1   
     3     1    23 1   
     4     1    24 1   
     5     2     3 1   
     6     2    25 1   
     7     2    26 1   
     8     3     4 1   
     9     3    27 1   
    10     3    28 1   
    11     4     5 1   
    12     4    29 1   
    13     4    30 1   
    14     5     6 1   
    15     5    31 1   
    16     5    32 1   
    17     6     7 1   
    18     6    33 1   
    19     6    34 1   
    20     7     8 1   
    21     7    35 1   
    22     7    36 1   
    23     8     9 1   
    24     8    37 1   
    25     8    38 1   
    26     9    10 1   
    27     9    39 1   
    28     9    40 1   
    29    10    11 1   
    30    10    41 1   
    31    10    42 1   
    32    11    12 1   
    33    11    43 1   
    34    11    44 1   
    35    12    13 1   
    36    12    45 1   
    37    12    46 1   
    38    13    14 1   
    39    14    15 1   
    40    14    18 2   
    41    15    16 1   
    42    15    47 1   
    43    16    17 2   
    44    17    18 1   
    45    18    19 1   
    46    19    20 1   
    47    19    21 1   
@<TRIPOS>SUBSTRUCTURE
     1 2RD         1 TEMP              0 ****  ****    0 ROOT
