@<TRIPOS>MOLECULE
2RE
   39    42     1     0     0
SMALL
bcc


@<TRIPOS>ATOM
      1 F01         -5.0530    -3.6480     0.3890 f          1 2RE      -0.144900
      2 C02         -3.9650    -2.8670     0.3010 ca         1 2RE       0.138900
      3 C03         -2.8830    -3.3050    -0.4380 ca         1 2RE      -0.176500
      4 C04         -1.7640    -2.4910    -0.5240 ca         1 2RE      -0.082000
      5 C05         -1.7240    -1.2510     0.1150 ca         1 2RE      -0.128500
      6 C06         -0.5220    -0.4190     0.0170 cc         1 2RE       0.398800
      7 C07         -0.4070     0.9550    -0.0560 cd         1 2RE      -0.168600
      8 C08         -1.3740     2.0370    -0.1600 ca         1 2RE       0.030000
      9 C09         -2.5530     1.8960    -0.8920 ca         1 2RE      -0.241800
     10 C10         -3.4280     2.9650    -0.9700 ca         1 2RE       0.402700
     11 N11         -3.2120     4.1430    -0.3920 nb         1 2RE      -0.660000
     12 C12         -2.0840     4.2810     0.2950 ca         1 2RE       0.402700
     13 C13         -1.1440     3.2740     0.4420 ca         1 2RE      -0.241800
     14 N14          0.9430     1.1900    -0.0530 na         1 2RE      -0.284900
     15 C15          1.5820     0.0010    -0.0130 cd         1 2RE       0.487000
     16 C16          3.0310    -0.1510    -0.0300 ca         1 2RE      -0.171500
     17 C17          3.5870    -1.4020    -0.3080 ca         1 2RE      -0.063000
     18 C18          4.9550    -1.5870    -0.3340 ca         1 2RE      -0.197500
     19 C19          5.8100    -0.5140    -0.0780 ca         1 2RE       0.154100
     20 O20          7.1330    -0.7440    -0.1160 oh         1 2RE      -0.488100
     21 C21          5.2690     0.7380     0.2050 ca         1 2RE      -0.197500
     22 C22          3.8950     0.9110     0.2300 ca         1 2RE      -0.063000
     23 N23          0.7160    -0.9850     0.0360 nc         1 2RE      -0.672000
     24 C24         -2.8300    -0.8530     0.8660 ca         1 2RE      -0.082000
     25 C25         -3.9580    -1.6530     0.9600 ca         1 2RE      -0.176500
     26 H1          -2.9110    -4.2630    -0.9410 ha         1 2RE       0.150000
     27 H2          -0.9120    -2.8230    -1.1020 ha         1 2RE       0.144000
     28 H3          -2.7850     0.9750    -1.4100 ha         1 2RE       0.146000
     29 H4          -4.3470     2.8650    -1.5370 h4         1 2RE       0.021600
     30 H5          -1.9150     5.2450     0.7630 h4         1 2RE       0.021600
     31 H6          -0.2580     3.4580     1.0360 ha         1 2RE       0.146000
     32 H7           1.3710     2.0940    -0.1810 hn         1 2RE       0.306700
     33 H8           2.9340    -2.2410    -0.5130 ha         1 2RE       0.140000
     34 H9           5.3680    -2.5630    -0.5560 ha         1 2RE       0.143500
     35 H10          7.6230     0.0610     0.0880 ho         1 2RE       0.429000
     36 H11          5.9170     1.5810     0.4150 ha         1 2RE       0.143500
     37 H12          3.5130     1.8940     0.4750 ha         1 2RE       0.140000
     38 H14         -2.8120     0.0860     1.4040 ha         1 2RE       0.144000
     39 H15         -4.8110    -1.3410     1.5480 ha         1 2RE       0.150000
@<TRIPOS>BOND
     1     1     2 1   
     2     2     3 ar  
     3     2    25 ar  
     4     3     4 ar  
     5     3    26 1   
     6     4     5 ar  
     7     4    27 1   
     8     5     6 1   
     9     5    24 ar  
    10     6     7 2   
    11     6    23 1   
    12     7     8 1   
    13     7    14 1   
    14     8     9 ar  
    15     8    13 ar  
    16     9    10 ar  
    17     9    28 1   
    18    10    11 ar  
    19    10    29 1   
    20    11    12 ar  
    21    12    13 ar  
    22    12    30 1   
    23    13    31 1   
    24    14    15 1   
    25    14    32 1   
    26    15    16 1   
    27    15    23 2   
    28    16    17 ar  
    29    16    22 ar  
    30    17    18 ar  
    31    17    33 1   
    32    18    19 ar  
    33    18    34 1   
    34    19    20 1   
    35    19    21 ar  
    36    20    35 1   
    37    21    22 ar  
    38    21    36 1   
    39    22    37 1   
    40    24    25 ar  
    41    24    38 1   
    42    25    39 1   
@<TRIPOS>SUBSTRUCTURE
     1 2RE         1 TEMP              0 ****  ****    0 ROOT
