@<TRIPOS>MOLECULE
2RE
   39    42     1     0     0
SMALL
No Charge or Current Charge


@<TRIPOS>ATOM
      1 F01         -5.1580    -3.5100     0.2170 f          1 2RE      -0.180000
      2 C02         -4.0330    -2.7630     0.1580 ca         1 2RE       0.174000
      3 C03         -3.0610    -3.0400    -0.8150 ca         1 2RE      -0.158500
      4 C04         -1.8900    -2.2650    -0.8760 ca         1 2RE      -0.064000
      5 C05         -1.6970    -1.1950     0.0230 ca         1 2RE      -0.128500
      6 C06         -0.4550    -0.4220    -0.0120 cc         1 2RE       0.333500
      7 C07         -0.3970     0.9560     0.0160 cd         1 2RE      -0.154000
      8 C08         -1.4420     1.9970    -0.1200 ca         1 2RE       0.030000
      9 C09         -2.7350     1.7380    -0.6180 ca         1 2RE      -0.158500
     10 C10         -3.6640     2.7860    -0.7280 ca         1 2RE       0.337400
     11 N11         -3.3810     4.0630    -0.3860 nb         1 2RE      -0.660000
     12 C12         -2.1380     4.3230     0.0740 ca         1 2RE       0.337400
     13 C13         -1.1500     3.3350     0.2130 ca         1 2RE      -0.158500
     14 N14          0.9700     1.2070     0.0530 na         1 2RE      -0.284500
     15 C15          1.6370    -0.0060     0.0190 cd         1 2RE       0.487000
     16 C16          3.1040    -0.1960     0.0210 ca         1 2RE      -0.171500
     17 C17          3.6640    -1.4940    -0.0270 ca         1 2RE      -0.045000
     18 C18          5.0580    -1.6710    -0.0250 ca         1 2RE      -0.179500
     19 C19          5.9100    -0.5610     0.0260 ca         1 2RE       0.154100
     20 O20          7.2600    -0.7460     0.0270 oh         1 2RE      -0.527100
     21 C21          5.3710     0.7320     0.0740 ca         1 2RE      -0.179500
     22 C22          3.9770     0.9160     0.0720 ca         1 2RE      -0.045000
     23 N23          0.7740    -1.0070    -0.0210 nc         1 2RE      -0.672000
     24 C24         -2.6660    -0.9470     1.0190 ca         1 2RE      -0.064000
     25 C25         -3.8370    -1.7230     1.0780 ca         1 2RE      -0.158500
     26 H1          -3.2140    -3.8570    -1.5160 ha         1 2RE       0.132000
     27 H2          -1.1330    -2.4890    -1.6260 ha         1 2RE       0.126000
     28 H3          -3.0320     0.7540    -0.9580 ha         1 2RE       0.128000
     29 H4          -4.6650     2.5990    -1.1160 h4         1 2RE       0.021600
     30 H5          -1.9270     5.3580     0.3400 h4         1 2RE       0.021600
     31 H6          -0.1750     3.6190     0.5960 ha         1 2RE       0.128000
     32 H7           1.4190     2.1110     0.0550 hn         1 2RE       0.357000
     33 H8           3.0220    -2.3710    -0.0670 ha         1 2RE       0.122000
     34 H9           5.4770    -2.6740    -0.0630 ha         1 2RE       0.125500
     35 H10          7.6940     0.1330     0.0660 ho         1 2RE       0.468000
     36 H11          6.0240     1.6010     0.1140 ha         1 2RE       0.125500
     37 H12          3.5850     1.9300     0.1110 ha         1 2RE       0.122000
     38 H14         -2.5120    -0.1510     1.7450 ha         1 2RE       0.126000
     39 H15         -4.5880    -1.5230     1.8380 ha         1 2RE       0.132000
@<TRIPOS>BOND
     1     1     2 1   
     2     2     3 ar  
     3     2    25 ar  
     4     3     4 ar  
     5     3    26 1   
     6     4     5 ar  
     7     4    27 1   
     8     5     6 1   
     9     5    24 ar  
    10     6     7 2   
    11     6    23 1   
    12     7     8 1   
    13     7    14 1   
    14     8     9 ar  
    15     8    13 ar  
    16     9    10 ar  
    17     9    28 1   
    18    10    11 ar  
    19    10    29 1   
    20    11    12 ar  
    21    12    13 ar  
    22    12    30 1   
    23    13    31 1   
    24    14    15 1   
    25    14    32 1   
    26    15    16 1   
    27    15    23 2   
    28    16    17 ar  
    29    16    22 ar  
    30    17    18 ar  
    31    17    33 1   
    32    18    19 ar  
    33    18    34 1   
    34    19    20 1   
    35    19    21 ar  
    36    20    35 1   
    37    21    22 ar  
    38    21    36 1   
    39    22    37 1   
    40    24    25 ar  
    41    24    38 1   
    42    25    39 1   
@<TRIPOS>SUBSTRUCTURE
     1 2RE         1 TEMP              0 ****  ****    0 ROOT
