@<TRIPOS>MOLECULE
2RF
   33    35     1     0     0
SMALL
No Charge or Current Charge


@<TRIPOS>ATOM
      1 C01          3.9570     0.2280     2.1920 ca         1 2RF      -0.098000
      2 C02          2.9650    -0.6690     1.7570 ca         1 2RF      -0.084000
      3 C03          2.4040    -0.5420     0.4720 ca         1 2RF      -0.000800
      4 C04          2.8570     0.4820    -0.3830 ca         1 2RF      -0.118000
      5 C05          3.8490     1.3770     0.0510 ca         1 2RF       0.121000
      6 C06          4.3980     1.2540     1.3380 ca         1 2RF      -0.102000
      7 Cl1          4.4050     2.6540    -1.0220 cl         1 2RF      -0.204000
      8 C08          1.3790    -1.4820     0.0280 cc         1 2RF      -0.254400
      9 C09          0.1140    -1.0890    -0.3490 cd         1 2RF       0.130800
     10 C10         -0.6450    -2.3230    -0.7610 c          1 2RF       0.563200
     11 O11         -1.7760    -2.4600    -1.2050 o          1 2RF      -0.473000
     12 N12          0.2560    -3.3160    -0.5400 ns         1 2RF      -0.487500
     13 C13          1.4750    -2.9440    -0.0750 c          1 2RF       0.596200
     14 O14          2.4120    -3.6810     0.1790 o          1 2RF      -0.489000
     15 N15         -0.3380     0.2270    -0.3670 nu         1 2RF      -0.800000
     16 C16         -1.6130     0.8080    -0.4160 ca         1 2RF       0.235000
     17 C17         -2.7450     0.1550     0.1070 ca         1 2RF      -0.065000
     18 C18         -4.0080     0.7710     0.0590 ca         1 2RF       0.033000
     19 C19         -4.1480     2.0550    -0.5050 ca         1 2RF       0.160100
     20 C20         -3.0190     2.7190    -1.0090 ca         1 2RF      -0.129000
     21 C21         -1.7560     2.1000    -0.9580 ca         1 2RF      -0.068000
     22 O22         -5.3680     2.6690    -0.5590 oh         1 2RF      -0.522100
     23 Cl2         -5.4060    -0.0770     0.7230 cl         1 2RF      -0.196000
     24 H011         4.3840     0.1270     3.1870 ha         1 2RF       0.121000
     25 H021         2.6270    -1.4620     2.4210 ha         1 2RF       0.129000
     26 H041         2.4520     0.5760    -1.3870 ha         1 2RF       0.124000
     27 H061         5.1650     1.9490     1.6700 ha         1 2RF       0.131000
     28 H121         0.0360    -4.2820    -0.7260 hn         1 2RF       0.353500
     29 H151         0.4240     0.9060    -0.3140 hn         1 2RF       0.508000
     30 H171        -2.6490    -0.8190     0.5730 ha         1 2RF       0.136000
     31 H201        -3.1210     3.7120    -1.4380 ha         1 2RF       0.140000
     32 H211        -0.8880     2.6220    -1.3530 ha         1 2RF       0.129000
     33 H221        -6.0300     2.0630    -0.1600 ho         1 2RF       0.482000
@<TRIPOS>BOND
     1     1     2 ar  
     2     1     6 ar  
     3     1    24 1   
     4     2     3 ar  
     5     2    25 1   
     6     3     4 ar  
     7     3     8 1   
     8     4     5 ar  
     9     4    26 1   
    10     5     6 ar  
    11     5     7 1   
    12     6    27 1   
    13     8     9 2   
    14     8    13 1   
    15     9    10 1   
    16     9    15 1   
    17    10    11 2   
    18    10    12 1   
    19    12    13 1   
    20    12    28 1   
    21    13    14 2   
    22    15    16 1   
    23    15    29 1   
    24    16    17 ar  
    25    16    21 ar  
    26    17    18 ar  
    27    17    30 1   
    28    18    19 ar  
    29    18    23 1   
    30    19    20 ar  
    31    19    22 1   
    32    20    21 ar  
    33    20    31 1   
    34    21    32 1   
    35    22    33 1   
@<TRIPOS>SUBSTRUCTURE
     1 2RF         1 TEMP              0 ****  ****    0 ROOT
