@<TRIPOS>MOLECULE
2RF
   33    35     1     0     0
SMALL
abcg2


@<TRIPOS>ATOM
      1 C01          4.1290    -0.1180     2.2330 ca         1 2RF      -0.098000
      2 C02          3.0760    -0.8590     1.7250 ca         1 2RF      -0.084000
      3 C03          2.4730    -0.4980     0.5170 ca         1 2RF      -0.000800
      4 C04          2.9580     0.6150    -0.1720 ca         1 2RF      -0.118000
      5 C05          4.0080     1.3500     0.3570 ca         1 2RF       0.121000
      6 C06          4.6050     0.9980     1.5560 ca         1 2RF      -0.102000
      7 CL1          4.5960     2.7280    -0.5140 cl         1 2RF      -0.204000
      8 C08          1.3370    -1.2490    -0.0090 cc         1 2RF      -0.254400
      9 C09          0.1540    -0.7690    -0.4710 cd         1 2RF       0.130800
     10 C10         -0.6800    -1.9450    -0.9300 c          1 2RF       0.563200
     11 O11         -1.7400    -1.9070    -1.4970 o          1 2RF      -0.473000
     12 N12          0.0560    -3.0540    -0.6270 ns         1 2RF      -0.487500
     13 C13          1.2910    -2.7130    -0.0900 c          1 2RF       0.596200
     14 O14          2.1340    -3.5100     0.2480 o          1 2RF      -0.489000
     15 N15         -0.2700     0.4950    -0.6140 nu         1 2RF      -0.800000
     16 C16         -1.6250     0.8960    -0.5900 ca         1 2RF       0.235000
     17 C17         -2.4940     0.4050     0.3750 ca         1 2RF      -0.065000
     18 C18         -3.8120     0.8240     0.3830 ca         1 2RF       0.033000
     19 C19         -4.2870     1.7650    -0.5330 ca         1 2RF       0.160100
     20 C20         -3.3920     2.2710    -1.4720 ca         1 2RF      -0.129000
     21 C21         -2.0800     1.8350    -1.5060 ca         1 2RF      -0.068000
     22 O22         -5.5530     2.2020    -0.5580 oh         1 2RF      -0.522100
     23 CL2         -4.9030     0.1960     1.5750 cl         1 2RF      -0.196000
     24 H011         4.5850    -0.3990     3.1720 ha         1 2RF       0.121000
     25 H021         2.7110    -1.7150     2.2750 ha         1 2RF       0.129000
     26 H041         2.5420     0.8890    -1.1330 ha         1 2RF       0.124000
     27 H061         5.4220     1.5810     1.9590 ha         1 2RF       0.131000
     28 H121        -0.2310    -4.0020    -0.8240 hn         1 2RF       0.353500
     29 H151         0.4050     1.2290    -0.4540 hn         1 2RF       0.508000
     30 H171        -2.1510    -0.2950     1.1250 ha         1 2RF       0.136000
     31 H201        -3.7420     3.0030    -2.1880 ha         1 2RF       0.140000
     32 H211        -1.4060     2.2290    -2.2560 ha         1 2RF       0.129000
     33 H221        -6.0670     1.8310     0.1710 ho         1 2RF       0.482000
@<TRIPOS>BOND
     1     1     2 ar  
     2     1     6 ar  
     3     1    24 1   
     4     2     3 ar  
     5     2    25 1   
     6     3     4 ar  
     7     3     8 1   
     8     4     5 ar  
     9     4    26 1   
    10     5     6 ar  
    11     5     7 1   
    12     6    27 1   
    13     8     9 2   
    14     8    13 1   
    15     9    10 1   
    16     9    15 1   
    17    10    11 2   
    18    10    12 1   
    19    12    13 1   
    20    12    28 1   
    21    13    14 2   
    22    15    16 1   
    23    15    29 1   
    24    16    17 ar  
    25    16    21 ar  
    26    17    18 ar  
    27    17    30 1   
    28    18    19 ar  
    29    18    23 1   
    30    19    20 ar  
    31    19    22 1   
    32    20    21 ar  
    33    20    31 1   
    34    21    32 1   
    35    22    33 1   
@<TRIPOS>SUBSTRUCTURE
     1 2RF         1 TEMP              0 ****  ****    0 ROOT
