@<TRIPOS>MOLECULE
2RG
   58    60     1     0     0
SMALL
bcc


@<TRIPOS>ATOM
      1 C           -2.8420    -0.7350    -0.6460 c          1 2RG       0.664100
      2 N           -1.2070    -1.6630    -2.2320 n7         1 2RG      -0.779200
      3 O           -2.5680     0.4040    -0.9770 o          1 2RG      -0.561100
      4 CA          -1.9650    -1.9170    -1.0200 c5         1 2RG       0.066500
      5 CB          -0.9430    -2.2420     0.1180 c5         1 2RG      -0.092400
      6 CD           0.0440    -2.3800    -2.0490 c5         1 2RG       0.149800
      7 CG           0.4210    -2.1910    -0.5790 c5         1 2RG       0.015400
      8 CAB          5.2810     1.7010     0.4630 c3         1 2RG      -0.190700
      9 CAD          4.0960     0.7560     0.2310 c5         1 2RG       0.088500
     10 CAE          5.7280     1.6530     1.9520 c3         1 2RG       0.152100
     11 CAF          6.9060     2.5720     2.2380 c3         1 2RG      -0.131100
     12 OAG          4.6430     1.9400     2.8050 oh         1 2RG      -0.581800
     13 CAH          3.2920     0.9020    -1.0790 c5         1 2RG      -0.078700
     14 CAI          2.6990    -0.5110    -1.1890 c5         1 2RG      -0.040900
     15 NAJ          4.4920    -0.6440     0.3000 n2         1 2RG      -0.572900
     16 SAK          1.1180    -0.5360    -0.2690 ss         1 2RG      -0.366200
     17 CAL          3.7440    -1.3240    -0.4670 ce         1 2RG       0.345300
     18 CAM          3.9110    -2.8260    -0.6590 c          1 2RG       0.847300
     19 OAT          4.6760    -3.4130     0.1200 o          1 2RG      -0.809300
     20 OAU          3.2640    -3.3070    -1.6100 o          1 2RG      -0.809300
     21 NAX         -3.9040    -1.0840     0.1180 ns         1 2RG      -0.471100
     22 CAY         -4.8780    -0.2810     0.7280 ca         1 2RG       0.037600
     23 CAZ         -4.8870     1.1120     0.6900 ca         1 2RG      -0.115000
     24 CBA         -5.8960     1.8290     1.3290 ca         1 2RG      -0.118600
     25 CBB         -6.9010     1.1500     2.0090 ca         1 2RG      -0.131000
     26 CBC         -6.8920    -0.2370     2.0510 ca         1 2RG      -0.146000
     27 CBD         -5.8910    -0.9520     1.4170 ca         1 2RG      -0.214000
     28 CBE         -5.8890     3.3550     1.2780 c          1 2RG       0.922200
     29 OBF         -4.9420     3.8920     0.6730 o          1 2RG      -0.826300
     30 OBG         -6.8330     3.9330     1.8490 o          1 2RG      -0.826300
     31 HN          -1.0010    -0.6690    -2.2740 hn         1 2RG       0.382800
     32 HA          -2.6000    -2.7960    -1.1730 h1         1 2RG       0.053700
     33 HB          -1.0120    -1.5560     0.9650 hc         1 2RG       0.057200
     34 HBA         -1.1230    -3.2430     0.5100 hc         1 2RG       0.057200
     35 HD          -0.1120    -3.4470    -2.2350 h1         1 2RG       0.064700
     36 HDA          0.8030    -2.0370    -2.7490 h1         1 2RG       0.064700
     37 HG           1.1020    -2.9560    -0.2160 h1         1 2RG       0.115700
     38 HAB          4.9790     2.7300     0.2350 hc         1 2RG       0.052700
     39 HAD          3.4020     0.9310     1.0620 h1         1 2RG       0.085700
     40 HAE          6.0140     0.6240     2.1860 h1         1 2RG       0.102700
     41 HAF          6.7000     3.5980     1.9210 hc         1 2RG       0.036033
     42 HAFA         7.1180     2.5810     3.3080 hc         1 2RG       0.036033
     43 HAFB         7.8140     2.2450     1.7330 hc         1 2RG       0.036033
     44 HOAG         4.3880     2.8610     2.6740 ho         1 2RG       0.390000
     45 HAH          2.5200     1.6670    -0.9700 hc         1 2RG       0.067700
     46 HAI          2.5210    -0.8300    -2.2160 h1         1 2RG       0.095700
     47 HNAX        -4.0250    -2.0740     0.2700 hn         1 2RG       0.297500
     48 HAZ         -4.1170     1.6560     0.1700 ha         1 2RG       0.184000
     49 HBB         -7.6860     1.7050     2.5020 ha         1 2RG       0.141000
     50 HBC         -7.6700    -0.7720     2.5800 ha         1 2RG       0.096000
     51 HBD         -5.8930    -2.0350     1.4570 ha         1 2RG       0.096000
     52 CAA          6.4600     1.3510    -0.4030 c          1 2RG       0.591900
     53 OAC          7.1350     2.1520    -1.0040 o          1 2RG      -0.568100
     54 HAA          6.7090     0.2760    -0.4310 h4         1 2RG       0.022200
     55 CAS          4.1160     1.2200    -2.3210 c3         1 2RG      -0.086100
     56 HAS          4.9060     0.4850    -2.4920 hc         1 2RG       0.032700
     57 HASA         3.4750     1.2130    -3.2030 hc         1 2RG       0.032700
     58 HASB         4.5720     2.2080    -2.2660 hc         1 2RG       0.032700
@<TRIPOS>BOND
     1     1     3 2   
     2     1     4 1   
     3     1    21 1   
     4     2     4 1   
     5     2     6 1   
     6     2    31 1   
     7     4     5 1   
     8     4    32 1   
     9     5     7 1   
    10     5    33 1   
    11     5    34 1   
    12     6     7 1   
    13     6    35 1   
    14     6    36 1   
    15     7    16 1   
    16     7    37 1   
    17     8     9 1   
    18     8    10 1   
    19     8    38 1   
    20     8    52 1   
    21     9    13 1   
    22     9    15 1   
    23     9    39 1   
    24    10    11 1   
    25    10    12 1   
    26    10    40 1   
    27    11    41 1   
    28    11    42 1   
    29    11    43 1   
    30    12    44 1   
    31    13    14 1   
    32    13    45 1   
    33    13    55 1   
    34    14    16 1   
    35    14    17 1   
    36    14    46 1   
    37    15    17 2   
    38    17    18 1   
    39    18    19 1   
    40    18    20 1   
    41    21    22 1   
    42    21    47 1   
    43    22    23 ar  
    44    22    27 ar  
    45    23    24 ar  
    46    23    48 1   
    47    24    25 ar  
    48    24    28 1   
    49    25    26 ar  
    50    25    49 1   
    51    26    27 ar  
    52    26    50 1   
    53    27    51 1   
    54    28    29 1   
    55    28    30 1   
    56    52    53 2   
    57    52    54 1   
    58    55    56 1   
    59    55    57 1   
    60    55    58 1   
@<TRIPOS>SUBSTRUCTURE
     1 2RG         1 TEMP              0 ****  ****    0 ROOT
