@<TRIPOS>MOLECULE
2RG
   58    60     1     0     0
SMALL
No Charge or Current Charge


@<TRIPOS>ATOM
      1 C           -2.8180    -0.3270    -0.3220 c          1 2RG       0.597100
      2 N           -1.1970    -1.2140    -2.1460 n7         1 2RG      -0.834400
      3 O           -2.5330     0.8670    -0.3720 o          1 2RG      -0.561100
      4 CA          -1.9460    -1.5160    -0.8810 c5         1 2RG       0.066500
      5 CB          -0.8410    -1.9040     0.1650 c5         1 2RG      -0.092400
      6 CD          -0.0510    -2.1470    -2.0930 c5         1 2RG       0.149800
      7 CG           0.4840    -1.9110    -0.6560 c5         1 2RG       0.063300
      8 CAB          5.4690     1.6190     0.3700 c3         1 2RG      -0.190700
      9 CAD          4.2480     0.7000     0.0500 c5         1 2RG       0.088500
     10 CAE          5.6210     1.9010     1.8910 c3         1 2RG       0.175300
     11 CAF          6.8750     2.7270     2.2580 c3         1 2RG      -0.131100
     12 OAG          4.4800     2.6340     2.3490 oh         1 2RG      -0.644000
     13 CAH          3.7200     0.6470    -1.4280 c5         1 2RG      -0.078700
     14 CAI          2.8630    -0.6460    -1.3430 c5         1 2RG       0.007000
     15 NAJ          4.5240    -0.7150     0.4010 n2         1 2RG      -0.572900
     16 SAK          1.2180    -0.1840    -0.5440 ss         1 2RG      -0.462000
     17 CAL          3.7500    -1.4390    -0.3700 ce         1 2RG       0.345300
     18 CAM          3.9680    -2.9280    -0.7120 c          1 2RG       0.636700
     19 OAT          4.8010    -3.5720    -0.0790 o          1 2RG      -0.704000
     20 OAU          3.3050    -3.4490    -1.6040 o          1 2RG      -0.704000
     21 NAX         -3.9990    -0.8540     0.1920 ns         1 2RG      -0.145000
     22 CAY         -5.1320    -0.2490     0.8040 ca         1 2RG      -0.055000
     23 CAZ         -5.2370     1.1370     1.0610 ca         1 2RG      -0.097000
     24 CBA         -6.3930     1.6800     1.6760 ca         1 2RG      -0.118600
     25 CBB         -7.4450     0.8030     2.0300 ca         1 2RG      -0.113000
     26 CBC         -7.3430    -0.5740     1.7790 ca         1 2RG      -0.128000
     27 CBD         -6.1930    -1.0950     1.1700 ca         1 2RG      -0.196000
     28 CBE         -6.5000     3.1750     1.9500 c          1 2RG       0.711600
     29 OBF         -5.5680     3.8980     1.6300 o          1 2RG      -0.721000
     30 OBG         -7.5160     3.6030     2.4810 o          1 2RG      -0.721000
     31 HN          -0.7950    -0.2710    -2.0370 hn         1 2RG       0.438000
     32 HA          -2.6040    -2.3800    -1.0540 h1         1 2RG       0.053700
     33 HB          -0.7920    -1.2180     1.0190 hc         1 2RG       0.057200
     34 HBA         -1.0470    -2.8980     0.5790 hc         1 2RG       0.057200
     35 HD          -0.3790    -3.1880    -2.2300 h1         1 2RG       0.064700
     36 HDA          0.6970    -1.9250    -2.8660 h1         1 2RG       0.064700
     37 HG           1.1880    -2.6810    -0.3120 h1         1 2RG       0.115700
     38 HAB          5.3170     2.5830    -0.1310 hc         1 2RG       0.052700
     39 HAD          3.4180     1.0490     0.6830 h1         1 2RG       0.085700
     40 HAE          5.6840     0.9370     2.4200 h1         1 2RG       0.102700
     41 HAF          6.9090     3.6660     1.6920 hc         1 2RG       0.036033
     42 HAFA         6.8760     2.9700     3.3270 hc         1 2RG       0.036033
     43 HAFB         7.7940     2.1660     2.0510 hc         1 2RG       0.036033
     44 HOAG         4.5230     3.5210     1.9320 ho         1 2RG       0.429000
     45 HAH          3.1020     1.5240    -1.6570 hc         1 2RG       0.067700
     46 HAI          2.7180    -1.1230    -2.3200 h1         1 2RG       0.095700
     47 HNAX        -4.0660    -1.8610     0.1250 hn         1 2RG       0.131000
     48 HAZ         -4.4290     1.8090     0.7920 ha         1 2RG       0.166000
     49 HBB         -8.3460     1.1870     2.5040 ha         1 2RG       0.123000
     50 HBC         -8.1580    -1.2380     2.0570 ha         1 2RG       0.078000
     51 HBD         -6.1270    -2.1640     0.9810 ha         1 2RG       0.078000
     52 CAA          6.7850     1.0350    -0.1720 c          1 2RG       0.591900
     53 OAC          7.4990     1.6190    -0.9830 o          1 2RG      -0.568100
     54 HAA          7.0800     0.0410     0.2320 h4         1 2RG       0.022200
     55 CAS          4.7790     0.5680    -2.5580 c3         1 2RG      -0.086100
     56 HAS          5.4900    -0.2510    -2.3980 hc         1 2RG       0.032700
     57 HASA         4.2970     0.4010    -3.5290 hc         1 2RG       0.032700
     58 HASB         5.3420     1.5050    -2.6380 hc         1 2RG       0.032700
@<TRIPOS>BOND
     1     1     3 2   
     2     1     4 1   
     3     1    21 1   
     4     2     4 1   
     5     2     6 1   
     6     2    31 1   
     7     4     5 1   
     8     4    32 1   
     9     5     7 1   
    10     5    33 1   
    11     5    34 1   
    12     6     7 1   
    13     6    35 1   
    14     6    36 1   
    15     7    16 1   
    16     7    37 1   
    17     8     9 1   
    18     8    10 1   
    19     8    38 1   
    20     8    52 1   
    21     9    13 1   
    22     9    15 1   
    23     9    39 1   
    24    10    11 1   
    25    10    12 1   
    26    10    40 1   
    27    11    41 1   
    28    11    42 1   
    29    11    43 1   
    30    12    44 1   
    31    13    14 1   
    32    13    45 1   
    33    13    55 1   
    34    14    16 1   
    35    14    17 1   
    36    14    46 1   
    37    15    17 2   
    38    17    18 1   
    39    18    19 1   
    40    18    20 1   
    41    21    22 1   
    42    21    47 1   
    43    22    23 ar  
    44    22    27 ar  
    45    23    24 ar  
    46    23    48 1   
    47    24    25 ar  
    48    24    28 1   
    49    25    26 ar  
    50    25    49 1   
    51    26    27 ar  
    52    26    50 1   
    53    27    51 1   
    54    28    29 1   
    55    28    30 1   
    56    52    53 2   
    57    52    54 1   
    58    55    56 1   
    59    55    57 1   
    60    55    58 1   
@<TRIPOS>SUBSTRUCTURE
     1 2RG         1 TEMP              0 ****  ****    0 ROOT
