@<TRIPOS>MOLECULE
2RH
   20    19     1     0     0
SMALL
No Charge or Current Charge


@<TRIPOS>ATOM
      1 C1          -0.5270    -0.3330    -0.3540 c3         1 2RH       0.021300
      2 O1          -2.6420    -0.5140     0.7680 o          1 2RH      -0.725000
      3 C2           0.6350     0.2190     0.5190 c3         1 2RH      -0.065400
      4 O2          -2.2550     1.3510    -0.2430 o          1 2RH      -0.725000
      5 C3          -1.9120     0.2380     0.1320 c          1 2RH       0.690000
      6 O3          -0.5090    -1.7850    -0.3340 oh         1 2RH      -0.716000
      7 C4           2.0730    -0.1530     0.0540 c3         1 2RH      -0.061700
      8 C5           2.4070     0.3890    -1.3580 c3         1 2RH      -0.080100
      9 C6           3.1260     0.3210     1.0830 c3         1 2RH      -0.080100
     10 H1          -0.3900     0.0210    -1.3840 h1         1 2RH       0.024700
     11 H2           0.5540     1.3130     0.5560 hc         1 2RH       0.039200
     12 H2A          0.4900    -0.1310     1.5490 hc         1 2RH       0.039200
     13 HO3         -1.3130    -2.0360     0.1850 ho         1 2RH       0.472000
     14 H4           2.1430    -1.2470     0.0100 hc         1 2RH       0.052700
     15 H5           3.4390     0.1400    -1.6320 hc         1 2RH       0.019033
     16 H5A          1.7500    -0.0490    -2.1170 hc         1 2RH       0.019033
     17 H5B          2.2980     1.4800    -1.3930 hc         1 2RH       0.019033
     18 H6           2.9240    -0.1100     2.0710 hc         1 2RH       0.019033
     19 H6A          4.1330     0.0110     0.7790 hc         1 2RH       0.019033
     20 H6B          3.1170     1.4140     1.1760 hc         1 2RH       0.019033
@<TRIPOS>BOND
     1     1     3 1   
     2     1     5 1   
     3     1     6 1   
     4     1    10 1   
     5     2     5 1   
     6     3     7 1   
     7     3    11 1   
     8     3    12 1   
     9     4     5 1   
    10     6    13 1   
    11     7     8 1   
    12     7     9 1   
    13     7    14 1   
    14     8    15 1   
    15     8    16 1   
    16     8    17 1   
    17     9    18 1   
    18     9    19 1   
    19     9    20 1   
@<TRIPOS>SUBSTRUCTURE
     1 2RH         1 TEMP              0 ****  ****    0 ROOT
