@<TRIPOS>MOLECULE
2RH
   20    19     1     0     0
SMALL
abcg2


@<TRIPOS>ATOM
      1 C1          -0.4920    -0.3110    -0.3480 c3         1 2RH       0.021300
      2 O1          -2.6420    -0.7460     0.5300 o          1 2RH      -0.725000
      3 C2           0.6420     0.2630     0.4960 c3         1 2RH      -0.065400
      4 O2          -2.0780     1.3910     0.2000 o          1 2RH      -0.725000
      5 C3          -1.8630     0.1700     0.1740 c          1 2RH       0.690000
      6 O3          -0.4640    -1.7190    -0.3580 oh         1 2RH      -0.716000
      7 C4           2.0480    -0.1640     0.0680 c3         1 2RH      -0.061700
      8 C5           2.3900     0.3080    -1.3420 c3         1 2RH      -0.080100
      9 C6           3.0780     0.3590     1.0650 c3         1 2RH      -0.080100
     10 H1          -0.3860     0.0640    -1.3770 h1         1 2RH       0.024700
     11 H2           0.5770     1.3550     0.4680 hc         1 2RH       0.039200
     12 H2A          0.4870    -0.0290     1.5420 hc         1 2RH       0.039200
     13 HO3         -1.3360    -1.9430     0.0180 ho         1 2RH       0.472000
     14 H4           2.0930    -1.2580     0.0830 hc         1 2RH       0.052700
     15 H5           3.4020     0.0070    -1.6210 hc         1 2RH       0.019033
     16 H5A          1.7120    -0.1000    -2.0910 hc         1 2RH       0.019033
     17 H5B          2.3410     1.3980    -1.4100 hc         1 2RH       0.019033
     18 H6           2.8700     0.0050     2.0770 hc         1 2RH       0.019033
     19 H6A          4.0870     0.0370     0.8020 hc         1 2RH       0.019033
     20 H6B          3.0750     1.4520     1.0900 hc         1 2RH       0.019033
@<TRIPOS>BOND
     1     1     3 1   
     2     1     5 1   
     3     1     6 1   
     4     1    10 1   
     5     2     5 1   
     6     3     7 1   
     7     3    11 1   
     8     3    12 1   
     9     4     5 1   
    10     6    13 1   
    11     7     8 1   
    12     7     9 1   
    13     7    14 1   
    14     8    15 1   
    15     8    16 1   
    16     8    17 1   
    17     9    18 1   
    18     9    19 1   
    19     9    20 1   
@<TRIPOS>SUBSTRUCTURE
     1 2RH         1 TEMP              0 ****  ****    0 ROOT
