@<TRIPOS>MOLECULE
2RI
   64    68     1     0     0
SMALL
No Charge or Current Charge


@<TRIPOS>ATOM
      1 C10         19.5470     6.9210   -25.8220 c3         1 2RI       0.099000
      2 C13         17.0490     4.3070   -24.5500 ca         1 2RI      -0.167000
      3 C20         22.3020     4.1240   -28.0360 ca         1 2RI       0.090100
      4 C22         23.2680     2.8260   -29.5810 ca         1 2RI       0.088100
      5 C24         25.4070     3.9150   -29.9890 ca         1 2RI      -0.049000
      6 C26         24.7660     1.8660   -31.1960 ca         1 2RI      -0.082000
      7 C28         23.5400     4.7010   -28.3080 cp         1 2RI      -0.080000
      8 C02         24.2570     7.2450   -31.0290 ca         1 2RI       0.172000
      9 C03         24.3580     8.3810   -30.2130 ca         1 2RI      -0.153500
     10 C04         23.2140     8.8920   -29.5750 ca         1 2RI      -0.067000
     11 C05         21.9570     8.2720   -29.7610 ca         1 2RI      -0.123300
     12 C06         20.6940     8.7760   -29.0610 c3         1 2RI       0.160000
     13 C07         20.6110    10.3090   -28.9070 c3         1 2RI      -0.101100
     14 C09         19.4230     7.7930   -27.1170 c          1 2RI       0.596100
     15 C11         18.5100     5.7880   -25.7820 ca         1 2RI      -0.137300
     16 C12         17.9960     5.3440   -24.5490 ca         1 2RI      -0.056000
     17 C14         16.6440     3.7480   -25.7720 ca         1 2RI       0.344900
     18 C16         18.0360     5.1680   -26.9620 ca         1 2RI       0.380900
     19 C18         21.7720     5.8750   -26.4680 ca         1 2RI      -0.048000
     20 C19         21.4100     4.6640   -27.1070 ca         1 2RI      -0.077000
     21 C23         24.1730     3.8530   -29.3190 cp         1 2RI      -0.101000
     22 C25         25.6960     2.9070   -30.9360 ca         1 2RI      -0.134000
     23 C27         23.5300     1.8160   -30.5120 ca         1 2RI      -0.112000
     24 C29         23.9520     5.8610   -27.6330 ca         1 2RI      -0.049000
     25 C30         23.0630     6.4290   -26.6950 ca         1 2RI      -0.142000
     26 C32         22.5870     5.7080   -23.5940 c3         1 2RI       0.108300
     27 C34         23.7310     6.6480   -23.1520 c3         1 2RI      -0.127100
     28 C37         21.8740     7.1200   -30.5730 ca         1 2RI      -0.067000
     29 C38         23.0200     6.6110   -31.2080 ca         1 2RI      -0.153500
     30 N08         20.5940     8.1120   -27.7700 ns         1 2RI      -0.499900
     31 N15         17.1260     4.1650   -26.9640 nb         1 2RI      -0.667000
     32 N17         20.9310     6.4460   -25.4470 n          1 2RI      -0.236400
     33 O21         22.1420     2.9870   -28.8000 os         1 2RI      -0.172200
     34 O33         22.2710     4.8410   -22.4790 oh         1 2RI      -0.638000
     35 O36         18.3410     8.1730   -27.5450 o          1 2RI      -0.576100
     36 H1          19.2330     7.6390   -25.0550 h1         1 2RI       0.062700
     37 H2          16.6310     3.9380   -23.6180 ha         1 2RI       0.122000
     38 H3          26.1150     4.7150   -29.7860 ha         1 2RI       0.125000
     39 H4          25.0070     1.0990   -31.9290 ha         1 2RI       0.118000
     40 H5          25.3220     8.8610   -30.0720 ha         1 2RI       0.133500
     41 H6          23.3160     9.7640   -28.9350 ha         1 2RI       0.120000
     42 H7          19.8330     8.4670   -29.6710 h1         1 2RI       0.085700
     43 H8          19.6230    10.6010   -28.5320 hc         1 2RI       0.045367
     44 H9          21.3610    10.6820   -28.2000 hc         1 2RI       0.045367
     45 H10         20.7650    10.8000   -29.8740 hc         1 2RI       0.045367
     46 H11         18.3180     5.7900   -23.6110 ha         1 2RI       0.112000
     47 H12         15.9120     2.9420   -25.7990 h4         1 2RI       0.018100
     48 H13         18.4080     5.4650   -27.9420 h4         1 2RI       0.026100
     49 H14         20.4780     4.1530   -26.8900 ha         1 2RI       0.153000
     50 H15         26.6420     2.9290   -31.4720 ha         1 2RI       0.119000
     51 H16         22.8080     1.0250   -30.7000 ha         1 2RI       0.136000
     52 H17         24.9250     6.3060   -27.8290 ha         1 2RI       0.126000
     53 H18         23.3660     7.3330   -26.1730 ha         1 2RI       0.118000
     54 H19         22.9510     5.0960   -24.4270 h1         1 2RI       0.092700
     55 H20         24.6140     6.0670   -22.8570 hc         1 2RI       0.049367
     56 H21         24.0270     7.3180   -23.9660 hc         1 2RI       0.049367
     57 H22         23.4250     7.2660   -22.2990 hc         1 2RI       0.049367
     58 H23         20.9200     6.6150   -30.7080 ha         1 2RI       0.120000
     59 H24         22.9520     5.7230   -31.8310 ha         1 2RI       0.133500
     60 H25         21.4460     7.7400   -27.3690 hn         1 2RI       0.312500
     61 H26         21.7450     5.3770   -21.8420 ho         1 2RI       0.460000
     62 C31         21.3220     6.5070   -24.0750 c          1 2RI       0.570100
     63 F01         25.3580     6.7600   -31.6440 f          1 2RI      -0.182000
     64 O35         20.6500     7.1150   -23.2460 o          1 2RI      -0.590100
@<TRIPOS>BOND
     1     1    14 1   
     2     1    15 1   
     3     1    32 1   
     4     1    36 1   
     5     2    16 ar  
     6     2    17 ar  
     7     2    37 1   
     8     3     7 ar  
     9     3    20 ar  
    10     3    33 1   
    11     4    21 ar  
    12     4    23 ar  
    13     4    33 1   
    14     5    21 ar  
    15     5    22 ar  
    16     5    38 1   
    17     6    22 ar  
    18     6    23 ar  
    19     6    39 1   
    20     7    21 1   
    21     7    24 ar  
    22     8     9 ar  
    23     8    29 ar  
    24     8    63 1   
    25     9    10 ar  
    26     9    40 1   
    27    10    11 ar  
    28    10    41 1   
    29    11    12 1   
    30    11    28 ar  
    31    12    13 1   
    32    12    30 1   
    33    12    42 1   
    34    13    43 1   
    35    13    44 1   
    36    13    45 1   
    37    14    30 1   
    38    14    35 2   
    39    15    16 ar  
    40    15    18 ar  
    41    16    46 1   
    42    17    31 ar  
    43    17    47 1   
    44    18    31 ar  
    45    18    48 1   
    46    19    20 ar  
    47    19    25 ar  
    48    19    32 1   
    49    20    49 1   
    50    22    50 1   
    51    23    51 1   
    52    24    25 ar  
    53    24    52 1   
    54    25    53 1   
    55    26    27 1   
    56    26    34 1   
    57    26    54 1   
    58    26    62 1   
    59    27    55 1   
    60    27    56 1   
    61    27    57 1   
    62    28    29 ar  
    63    28    58 1   
    64    29    59 1   
    65    30    60 1   
    66    32    62 1   
    67    34    61 1   
    68    62    64 2   
@<TRIPOS>SUBSTRUCTURE
     1 2RI         1 TEMP              0 ****  ****    0 ROOT
