@<TRIPOS>MOLECULE
2RI
   64    68     1     0     0
SMALL
abcg2


@<TRIPOS>ATOM
      1 C10         19.9750     6.7000   -25.8050 c3         1 2RI       0.099000
      2 C13         16.4020     6.5960   -24.5880 ca         1 2RI      -0.167000
      3 C20         22.7180     3.8900   -28.1840 ca         1 2RI       0.090100
      4 C22         23.7730     2.8650   -29.7910 ca         1 2RI       0.088100
      5 C24         25.6830     4.2520   -30.2630 ca         1 2RI      -0.049000
      6 C26         25.2700     2.2010   -31.4830 ca         1 2RI      -0.082000
      7 C28         23.8270     4.6910   -28.4670 cp         1 2RI      -0.080000
      8 C02         24.1600     7.6920   -30.8180 ca         1 2RI       0.172000
      9 C03         24.0920     8.7100   -29.8860 ca         1 2RI      -0.153500
     10 C04         22.8630     9.0120   -29.3220 ca         1 2RI      -0.067000
     11 C05         21.7130     8.3150   -29.6860 ca         1 2RI      -0.123300
     12 C06         20.3710     8.6380   -29.0630 c3         1 2RI       0.160000
     13 C07         20.0130    10.1160   -29.1440 c3         1 2RI      -0.101100
     14 C09         19.9210     6.9730   -27.3160 c          1 2RI       0.596100
     15 C11         18.6210     6.1890   -25.3810 ca         1 2RI      -0.137300
     16 C12         17.6600     7.0740   -24.9160 ca         1 2RI      -0.056000
     17 C14         16.1520     5.2410   -24.7380 ca         1 2RI       0.344900
     18 C16         18.2630     4.8510   -25.4970 ca         1 2RI       0.380900
     19 C18         21.9910     5.3800   -26.5140 ca         1 2RI      -0.048000
     20 C19         21.7840     4.2010   -27.2190 ca         1 2RI      -0.077000
     21 C23         24.5280     4.0100   -29.5280 cp         1 2RI      -0.101000
     22 C25         26.0460     3.3380   -31.2390 ca         1 2RI      -0.134000
     23 C27         24.1150     1.9400   -30.7600 ca         1 2RI      -0.112000
     24 C29         24.0120     5.8690   -27.7560 ca         1 2RI      -0.049000
     25 C30         23.0830     6.2080   -26.7870 ca         1 2RI      -0.142000
     26 C32         22.4470     4.5670   -23.8090 c3         1 2RI       0.108300
     27 C34         23.6440     5.4000   -23.3650 c3         1 2RI      -0.127100
     28 C37         21.8250     7.2940   -30.6220 ca         1 2RI      -0.067000
     29 C38         23.0470     6.9720   -31.1980 ca         1 2RI      -0.153500
     30 N08         20.3250     8.1970   -27.6770 ns         1 2RI      -0.499900
     31 N15         17.0630     4.3820   -25.1820 nb         1 2RI      -0.667000
     32 N17         21.0620     5.7630   -25.5010 n          1 2RI      -0.236400
     33 O21         22.6830     2.7900   -28.9800 os         1 2RI      -0.172200
     34 O33         22.0090     3.6800   -22.8140 oh         1 2RI      -0.638000
     35 O36         19.4980     6.1340   -28.0910 o          1 2RI      -0.576100
     36 H1          20.1660     7.6380   -25.2730 h1         1 2RI       0.062700
     37 H2          15.6310     7.2580   -24.2180 ha         1 2RI       0.122000
     38 H3          26.2910     5.1270   -30.0750 ha         1 2RI       0.125000
     39 H4          25.5770     1.5050   -32.2530 ha         1 2RI       0.118000
     40 H5          24.9830     9.2570   -29.6040 ha         1 2RI       0.133500
     41 H6          22.8120     9.8050   -28.5860 ha         1 2RI       0.120000
     42 H7          19.6050     8.0750   -29.5980 h1         1 2RI       0.085700
     43 H8          19.0070    10.2840   -28.7610 hc         1 2RI       0.045367
     44 H9          20.7010    10.7380   -28.5680 hc         1 2RI       0.045367
     45 H10         20.0440    10.4530   -30.1790 hc         1 2RI       0.045367
     46 H11         17.8950     8.1260   -24.8050 ha         1 2RI       0.112000
     47 H12         15.1790     4.8320   -24.4890 h4         1 2RI       0.018100
     48 H13         18.9820     4.1180   -25.8460 h4         1 2RI       0.026100
     49 H14         20.9380     3.5610   -27.0130 ha         1 2RI       0.153000
     50 H15         26.9410     3.5050   -31.8230 ha         1 2RI       0.119000
     51 H16         23.5140     1.0600   -30.9470 ha         1 2RI       0.136000
     52 H17         24.8560     6.5160   -27.9510 ha         1 2RI       0.126000
     53 H18         23.1980     7.1280   -26.2270 ha         1 2RI       0.118000
     54 H19         22.7400     3.9450   -24.6550 h1         1 2RI       0.092700
     55 H20         24.4610     4.7460   -23.0640 hc         1 2RI       0.049367
     56 H21         24.0060     6.0380   -24.1710 hc         1 2RI       0.049367
     57 H22         23.3850     6.0400   -22.5200 hc         1 2RI       0.049367
     58 H23         20.9440     6.7360   -30.9160 ha         1 2RI       0.120000
     59 H24         23.1280     6.1750   -31.9260 ha         1 2RI       0.133500
     60 H25         20.7060     8.8160   -26.9780 hn         1 2RI       0.312500
     61 H26         21.6960     4.2010   -22.0650 ho         1 2RI       0.460000
     62 C31         21.2910     5.4970   -24.1870 c          1 2RI       0.570100
     63 F01         25.3510     7.3970   -31.3680 f          1 2RI      -0.182000
     64 O35         20.5990     5.9780   -23.3070 o          1 2RI      -0.590100
@<TRIPOS>BOND
     1     1    14 1   
     2     1    15 1   
     3     1    32 1   
     4     1    36 1   
     5     2    16 ar  
     6     2    17 ar  
     7     2    37 1   
     8     3     7 ar  
     9     3    20 ar  
    10     3    33 1   
    11     4    21 ar  
    12     4    23 ar  
    13     4    33 1   
    14     5    21 ar  
    15     5    22 ar  
    16     5    38 1   
    17     6    22 ar  
    18     6    23 ar  
    19     6    39 1   
    20     7    21 1   
    21     7    24 ar  
    22     8     9 ar  
    23     8    29 ar  
    24     8    63 1   
    25     9    10 ar  
    26     9    40 1   
    27    10    11 ar  
    28    10    41 1   
    29    11    12 1   
    30    11    28 ar  
    31    12    13 1   
    32    12    30 1   
    33    12    42 1   
    34    13    43 1   
    35    13    44 1   
    36    13    45 1   
    37    14    30 1   
    38    14    35 2   
    39    15    16 ar  
    40    15    18 ar  
    41    16    46 1   
    42    17    31 ar  
    43    17    47 1   
    44    18    31 ar  
    45    18    48 1   
    46    19    20 ar  
    47    19    25 ar  
    48    19    32 1   
    49    20    49 1   
    50    22    50 1   
    51    23    51 1   
    52    24    25 ar  
    53    24    52 1   
    54    25    53 1   
    55    26    27 1   
    56    26    34 1   
    57    26    54 1   
    58    26    62 1   
    59    27    55 1   
    60    27    56 1   
    61    27    57 1   
    62    28    29 ar  
    63    28    58 1   
    64    29    59 1   
    65    30    60 1   
    66    32    62 1   
    67    34    61 1   
    68    62    64 2   
@<TRIPOS>SUBSTRUCTURE
     1 2RI         1 TEMP              0 ****  ****    0 ROOT
