@<TRIPOS>MOLECULE
2RJ
   59    63     1     0     0
SMALL
abcg2


@<TRIPOS>ATOM
      1 C01          5.3120    -4.1950    -1.2940 c3         1 2RJ      -0.046800
      2 C02          5.0600    -2.8430    -0.6920 ca         1 2RJ      -0.068300
      3 C03          3.8330    -2.1900    -0.8820 ca         1 2RJ      -0.064300
      4 C04          3.6600    -0.9480    -0.2780 ca         1 2RJ       0.109100
      5 C05          4.6440    -0.3390     0.4820 ca         1 2RJ      -0.101000
      6 C06          5.8530    -0.9910     0.6530 ca         1 2RJ      -0.103000
      7 C07          6.0520    -2.2340     0.0720 ca         1 2RJ      -0.105000
      8 O08          2.4860    -0.2470    -0.4900 os         1 2RJ      -0.340400
      9 C09          1.4060    -0.5380     0.2420 ca         1 2RJ       0.357300
     10 N10          1.5060    -1.4310     1.2080 nb         1 2RJ      -0.231000
     11 C11          0.3950    -1.6570     1.8980 ca         1 2RJ       0.141900
     12 C12         -0.7930    -1.0050     1.6330 ca         1 2RJ      -0.264000
     13 C13         -0.7790    -0.0940     0.5780 ca         1 2RJ       0.240500
     14 N14          0.3310     0.1350    -0.1190 nb         1 2RJ      -0.174000
     15 C15         -1.9600     0.6770     0.1950 cc         1 2RJ      -0.274500
     16 C16         -2.1080     2.0310    -0.0270 cd         1 2RJ       0.355500
     17 N17         -3.3940     2.2950    -0.3890 nd         1 2RJ      -0.676000
     18 C18         -4.0100     1.1410    -0.3890 cc         1 2RJ       0.411400
     19 N19         -3.2000     0.1270    -0.0310 na         1 2RJ      -0.149500
     20 C20         -3.5740    -1.2860    -0.0450 c6         1 2RJ       0.078300
     21 C21         -3.9860    -1.7470    -1.4390 c6         1 2RJ      -0.089400
     22 C22         -4.3770    -3.2180    -1.3890 c6         1 2RJ       0.159800
     23 N23         -5.4500    -3.4090    -0.4310 n7         1 2RJ      -0.865400
     24 C24         -5.0350    -3.0590     0.9140 c6         1 2RJ       0.159800
     25 C25         -4.6690    -1.5820     0.9750 c6         1 2RJ      -0.089400
     26 C26         -1.1290     3.1110     0.1120 ca         1 2RJ      -0.116500
     27 C27         -0.1220     3.0820     1.0770 ca         1 2RJ      -0.057000
     28 C28          0.7910     4.1190     1.1930 ca         1 2RJ      -0.157500
     29 C29          0.6810     5.1980     0.3370 ca         1 2RJ       0.173000
     30 C30         -0.3140     5.2740    -0.6180 ca         1 2RJ      -0.157500
     31 C31         -1.2160     4.2270    -0.7220 ca         1 2RJ      -0.057000
     32 F32          1.5630     6.2050     0.4420 f          1 2RJ      -0.183000
     33 C33          2.7310    -2.8130    -1.6880 c3         1 2RJ      -0.050800
     34 H011         5.2670    -4.1680    -2.3850 hc         1 2RJ       0.042700
     35 H013         6.2970    -4.5670    -1.0170 hc         1 2RJ       0.042700
     36 H012         4.5750    -4.9290    -0.9630 hc         1 2RJ       0.042700
     37 H051         4.4610     0.6310     0.9260 ha         1 2RJ       0.129000
     38 H061         6.6360    -0.5330     1.2440 ha         1 2RJ       0.118000
     39 H071         6.9990    -2.7430     0.2100 ha         1 2RJ       0.114000
     40 H111         0.4610    -2.3810     2.7020 h4         1 2RJ       0.026100
     41 H121        -1.6740    -1.1800     2.2330 ha         1 2RJ       0.139000
     42 H181        -5.0480     0.9910    -0.6470 h5         1 2RJ       0.061100
     43 H201        -2.6810    -1.8480     0.2370 h1         1 2RJ       0.068700
     44 H212        -4.8370    -1.1600    -1.7960 hc         1 2RJ       0.061950
     45 H211        -3.1630    -1.6010    -2.1410 hc         1 2RJ       0.061950
     46 H222        -4.7160    -3.5390    -2.3750 h1         1 2RJ       0.035950
     47 H221        -3.4830    -3.8160    -1.1480 h1         1 2RJ       0.035950
     48 H231        -5.7580    -4.3720    -0.4510 hn         1 2RJ       0.419000
     49 H241        -5.8550    -3.2610     1.6050 h1         1 2RJ       0.035950
     50 H242        -4.1720    -3.6520     1.2600 h1         1 2RJ       0.035950
     51 H251        -4.3310    -1.3210     1.9810 hc         1 2RJ       0.061950
     52 H252        -5.5550    -0.9800     0.7580 hc         1 2RJ       0.061950
     53 H271        -0.0520     2.2550     1.7700 ha         1 2RJ       0.121000
     54 H281         1.5670     4.0900     1.9460 ha         1 2RJ       0.129000
     55 H301        -0.3840     6.1330    -1.2720 ha         1 2RJ       0.129000
     56 H311        -1.9960     4.2760    -1.4700 ha         1 2RJ       0.121000
     57 H333         2.0710    -3.4080    -1.0520 hc         1 2RJ       0.047700
     58 H332         2.1150    -2.0700    -2.1910 hc         1 2RJ       0.047700
     59 H331         3.1220    -3.4780    -2.4560 hc         1 2RJ       0.047700
@<TRIPOS>BOND
     1     1     2 1   
     2     1    34 1   
     3     1    35 1   
     4     1    36 1   
     5     2     3 ar  
     6     2     7 ar  
     7     3     4 ar  
     8     3    33 1   
     9     4     5 ar  
    10     4     8 1   
    11     5     6 ar  
    12     5    37 1   
    13     6     7 ar  
    14     6    38 1   
    15     7    39 1   
    16     8     9 1   
    17     9    10 ar  
    18     9    14 ar  
    19    10    11 ar  
    20    11    12 ar  
    21    11    40 1   
    22    12    13 ar  
    23    12    41 1   
    24    13    14 ar  
    25    13    15 1   
    26    15    16 2   
    27    15    19 1   
    28    16    17 1   
    29    16    26 1   
    30    17    18 2   
    31    18    19 1   
    32    18    42 1   
    33    19    20 1   
    34    20    21 1   
    35    20    25 1   
    36    20    43 1   
    37    21    22 1   
    38    21    44 1   
    39    21    45 1   
    40    22    23 1   
    41    22    46 1   
    42    22    47 1   
    43    23    24 1   
    44    23    48 1   
    45    24    25 1   
    46    24    49 1   
    47    24    50 1   
    48    25    51 1   
    49    25    52 1   
    50    26    27 ar  
    51    26    31 ar  
    52    27    28 ar  
    53    27    53 1   
    54    28    29 ar  
    55    28    54 1   
    56    29    30 ar  
    57    29    32 1   
    58    30    31 ar  
    59    30    55 1   
    60    31    56 1   
    61    33    57 1   
    62    33    58 1   
    63    33    59 1   
@<TRIPOS>SUBSTRUCTURE
     1 2RJ         1 TEMP              0 ****  ****    0 ROOT
