@<TRIPOS>MOLECULE
2RJ
   59    63     1     0     0
SMALL
No Charge or Current Charge


@<TRIPOS>ATOM
      1 C01          5.2320    -4.3870    -1.2160 c3         1 2RJ      -0.046800
      2 C02          5.0580    -2.9590    -0.7040 ca         1 2RJ      -0.068300
      3 C03          3.8520    -2.2390    -0.9080 ca         1 2RJ      -0.064300
      4 C04          3.7410    -0.9260    -0.3870 ca         1 2RJ       0.109100
      5 C05          4.8150    -0.3310     0.2940 ca         1 2RJ      -0.101000
      6 C06          6.0080    -1.0430     0.4810 ca         1 2RJ      -0.103000
      7 C07          6.1260    -2.3510    -0.0130 ca         1 2RJ      -0.105000
      8 O08          2.5830    -0.1960    -0.5380 os         1 2RJ      -0.340400
      9 C09          1.4620    -0.4210     0.2330 ca         1 2RJ       0.357300
     10 N10          1.5560    -1.2490     1.3020 nb         1 2RJ      -0.231000
     11 C11          0.4430    -1.4480     2.0310 ca         1 2RJ       0.141900
     12 C12         -0.7650    -0.8220     1.7000 ca         1 2RJ      -0.264000
     13 C13         -0.7780     0.0240     0.5820 ca         1 2RJ       0.240500
     14 N14          0.3380     0.2200    -0.1500 nb         1 2RJ      -0.174000
     15 C15         -2.0040     0.7040     0.1790 cc         1 2RJ      -0.274500
     16 C16         -2.0960     2.0420    -0.1520 cd         1 2RJ       0.355500
     17 N17         -3.3590     2.2960    -0.6580 nd         1 2RJ      -0.676000
     18 C18         -4.0040     1.1370    -0.6650 cc         1 2RJ       0.411400
     19 N19         -3.2040     0.1240    -0.1780 na         1 2RJ      -0.149500
     20 C20         -3.5560    -1.3150    -0.1160 c6         1 2RJ       0.078300
     21 C21         -3.9780    -1.8610    -1.5050 c6         1 2RJ      -0.089400
     22 C22         -4.3750    -3.3520    -1.4040 c6         1 2RJ       0.159800
     23 N23         -5.4400    -3.5500    -0.3910 n7         1 2RJ      -0.865400
     24 C24         -5.0550    -3.0700     0.9580 c6         1 2RJ       0.159800
     25 C25         -4.6740    -1.5720     0.9260 c6         1 2RJ      -0.089400
     26 C26         -1.1430     3.1570     0.0930 ca         1 2RJ      -0.116500
     27 C27         -0.1190     3.0740     1.0680 ca         1 2RJ      -0.057000
     28 C28          0.7430     4.1600     1.3010 ca         1 2RJ      -0.157500
     29 C29          0.5810     5.3510     0.5820 ca         1 2RJ       0.173000
     30 C30         -0.4500     5.4690    -0.3580 ca         1 2RJ      -0.157500
     31 C31         -1.3140     4.3840    -0.5910 ca         1 2RJ      -0.057000
     32 F32          1.4080     6.3940     0.8100 f          1 2RJ      -0.183000
     33 C33          2.6840    -2.8750    -1.6710 c3         1 2RJ      -0.050800
     34 H011         5.2810    -4.4100    -2.3110 hc         1 2RJ       0.042700
     35 H013         6.1530    -4.8460    -0.8380 hc         1 2RJ       0.042700
     36 H012         4.3990    -5.0270    -0.9000 hc         1 2RJ       0.042700
     37 H051         4.7170     0.6800     0.6810 ha         1 2RJ       0.129000
     38 H061         6.8400    -0.5830     1.0110 ha         1 2RJ       0.118000
     39 H071         7.0560    -2.8940     0.1430 ha         1 2RJ       0.114000
     40 H111         0.5250    -2.1140     2.8890 h4         1 2RJ       0.026100
     41 H121        -1.6580    -0.9800     2.2980 ha         1 2RJ       0.139000
     42 H181        -5.0170     0.9660    -1.0100 h5         1 2RJ       0.061100
     43 H201        -2.6670    -1.8780     0.1980 h1         1 2RJ       0.068700
     44 H212        -4.8280    -1.2890    -1.9020 hc         1 2RJ       0.061950
     45 H211        -3.1550    -1.7450    -2.2220 hc         1 2RJ       0.061950
     46 H222        -4.7280    -3.7070    -2.3840 h1         1 2RJ       0.035950
     47 H221        -3.4920    -3.9500    -1.1310 h1         1 2RJ       0.035950
     48 H231        -5.6630    -4.5540    -0.3350 hn         1 2RJ       0.419000
     49 H241        -5.8910    -3.2230     1.6560 h1         1 2RJ       0.035950
     50 H242        -4.2010    -3.6580     1.3270 h1         1 2RJ       0.035950
     51 H251        -4.3410    -1.2540     1.9230 hc         1 2RJ       0.061950
     52 H252        -5.5640    -0.9750     0.6850 hc         1 2RJ       0.061950
     53 H271         0.0030     2.1860     1.6800 ha         1 2RJ       0.121000
     54 H281         1.5290     4.0830     2.0480 ha         1 2RJ       0.129000
     55 H301        -0.5830     6.4000    -0.9020 ha         1 2RJ       0.129000
     56 H311        -2.1090     4.4980    -1.3260 ha         1 2RJ       0.121000
     57 H333         2.1220    -3.5580    -1.0230 hc         1 2RJ       0.047700
     58 H332         1.9810    -2.1290    -2.0560 hc         1 2RJ       0.047700
     59 H331         3.0300    -3.4450    -2.5400 hc         1 2RJ       0.047700
@<TRIPOS>BOND
     1     1     2 1   
     2     1    34 1   
     3     1    35 1   
     4     1    36 1   
     5     2     3 ar  
     6     2     7 ar  
     7     3     4 ar  
     8     3    33 1   
     9     4     5 ar  
    10     4     8 1   
    11     5     6 ar  
    12     5    37 1   
    13     6     7 ar  
    14     6    38 1   
    15     7    39 1   
    16     8     9 1   
    17     9    10 ar  
    18     9    14 ar  
    19    10    11 ar  
    20    11    12 ar  
    21    11    40 1   
    22    12    13 ar  
    23    12    41 1   
    24    13    14 ar  
    25    13    15 1   
    26    15    16 2   
    27    15    19 1   
    28    16    17 1   
    29    16    26 1   
    30    17    18 2   
    31    18    19 1   
    32    18    42 1   
    33    19    20 1   
    34    20    21 1   
    35    20    25 1   
    36    20    43 1   
    37    21    22 1   
    38    21    44 1   
    39    21    45 1   
    40    22    23 1   
    41    22    46 1   
    42    22    47 1   
    43    23    24 1   
    44    23    48 1   
    45    24    25 1   
    46    24    49 1   
    47    24    50 1   
    48    25    51 1   
    49    25    52 1   
    50    26    27 ar  
    51    26    31 ar  
    52    27    28 ar  
    53    27    53 1   
    54    28    29 ar  
    55    28    54 1   
    56    29    30 ar  
    57    29    32 1   
    58    30    31 ar  
    59    30    55 1   
    60    31    56 1   
    61    33    57 1   
    62    33    58 1   
    63    33    59 1   
@<TRIPOS>SUBSTRUCTURE
     1 2RJ         1 TEMP              0 ****  ****    0 ROOT
