@<TRIPOS>MOLECULE
2RL
   57    61     1     0     0
SMALL
No Charge or Current Charge


@<TRIPOS>ATOM
      1 C1          -7.1790     1.2980     0.4360 ca         1 2RL       0.147100
      2 C2          -6.8270     0.5710     1.5940 ca         1 2RL      -0.185000
      3 C3          -5.6900    -0.2510     1.6150 ca         1 2RL       0.305000
      4 C4          -4.8900    -0.3470     0.4510 ca         1 2RL      -0.093000
      5 C5          -5.2330     0.3760    -0.7130 ca         1 2RL      -0.155000
      6 C6          -6.3790     1.2010    -0.7250 ca         1 2RL       0.116100
      7 N7          -5.3950    -0.9290     2.7480 nb         1 2RL      -0.685000
      8 C8          -4.3050    -1.7240     2.7670 ca         1 2RL       0.377900
      9 C9          -3.4610    -1.8770     1.6650 ca         1 2RL      -0.264000
     10 C10         -3.7480    -1.1730     0.4880 ca         1 2RL       0.188100
     11 O11         -2.9450    -1.3130    -0.6240 os         1 2RL      -0.245200
     12 C12         -1.5710    -1.3470    -0.5530 ca         1 2RL       0.109100
     13 C13         -0.8670    -2.1670    -1.4420 ca         1 2RL      -0.131000
     14 C14          0.5350    -2.2090    -1.4080 ca         1 2RL       0.111100
     15 C15          1.2650    -1.4500    -0.4520 ca         1 2RL      -0.098000
     16 C16          0.5370    -0.5930     0.4100 ca         1 2RL      -0.069000
     17 C17         -0.8670    -0.5490     0.3640 ca         1 2RL      -0.131000
     18 O25          1.1710    -3.0610    -2.2880 os         1 2RL      -0.330100
     19 C26          2.5980    -2.9570    -2.4630 c6         1 2RL       0.135600
     20 C27          3.3010    -2.6780    -1.1210 c6         1 2RL       0.064000
     21 N28          2.7210    -1.4490    -0.5060 n          1 2RL      -0.245400
     22 O33         -6.7460     1.9250    -1.8480 os         1 2RL      -0.320100
     23 O34         -8.2990     2.1150     0.4010 os         1 2RL      -0.317100
     24 C35          3.5540    -0.3520    -0.1120 c          1 2RL       0.666100
     25 O36          3.0970     0.7580     0.1340 o          1 2RL      -0.583100
     26 N37          4.9160    -0.6270    -0.0240 ns         1 2RL      -0.159000
     27 C38          6.0430     0.1900     0.2710 ca         1 2RL      -0.014000
     28 C39          5.9970     1.6020     0.3070 ca         1 2RL      -0.136500
     29 C40          7.1570     2.3440     0.5980 ca         1 2RL      -0.076000
     30 C41          8.3700     1.6850     0.8500 ca         1 2RL       0.096000
     31 C42          8.4280     0.2840     0.8080 ca         1 2RL      -0.076000
     32 C43          7.2690    -0.4590     0.5160 ca         1 2RL      -0.136500
     33 Cl48         9.8180     2.6150     1.2130 cl         1 2RL      -0.200000
     34 C49         -5.9940     1.8910    -3.0740 c3         1 2RL       0.143900
     35 C53         -9.1750     2.2790     1.5300 c3         1 2RL       0.142900
     36 H2          -7.4270     0.6310     2.4960 ha         1 2RL       0.139000
     37 H5          -4.6050     0.2900    -1.5950 ha         1 2RL       0.136000
     38 H8          -4.1070    -2.2560     3.6970 h4         1 2RL       0.015100
     39 H9          -2.6020    -2.5380     1.7290 ha         1 2RL       0.133000
     40 H13         -1.4080    -2.7740    -2.1620 ha         1 2RL       0.146000
     41 H16          1.0410     0.0190     1.1510 ha         1 2RL       0.136000
     42 H17         -1.4030     0.1100     1.0430 ha         1 2RL       0.137000
     43 H26          2.9760    -3.8850    -2.9130 h1         1 2RL       0.067700
     44 H26A         2.8060    -2.1310    -3.1580 h1         1 2RL       0.067700
     45 H27          3.1500    -3.5290    -0.4420 h1         1 2RL       0.067700
     46 H27A         4.3770    -2.5930    -1.3170 h1         1 2RL       0.067700
     47 HN37         5.1540    -1.5940    -0.1960 hn         1 2RL       0.154000
     48 H39          5.0800     2.1450     0.1020 ha         1 2RL       0.129000
     49 H40          7.1160     3.4300     0.6250 ha         1 2RL       0.131500
     50 H42          9.3690    -0.2260     1.0000 ha         1 2RL       0.131500
     51 H43          7.3280    -1.5450     0.4860 ha         1 2RL       0.129000
     52 H49         -4.9690     2.2490    -2.9130 h1         1 2RL       0.042700
     53 H49A        -5.9540     0.8720    -3.4790 h1         1 2RL       0.042700
     54 H49B        -6.4640     2.5370    -3.8260 h1         1 2RL       0.042700
     55 H53         -9.6180     1.3190     1.8230 h1         1 2RL       0.044033
     56 H53A        -8.6320     2.6960     2.3880 h1         1 2RL       0.044033
     57 H53B        -9.9920     2.9670     1.2790 h1         1 2RL       0.044033
@<TRIPOS>BOND
     1     1     2 ar  
     2     1     6 ar  
     3     1    23 1   
     4     2     3 ar  
     5     2    36 1   
     6     3     4 ar  
     7     3     7 ar  
     8     4     5 ar  
     9     4    10 ar  
    10     5     6 ar  
    11     5    37 1   
    12     6    22 1   
    13     7     8 ar  
    14     8     9 ar  
    15     8    38 1   
    16     9    10 ar  
    17     9    39 1   
    18    10    11 1   
    19    11    12 1   
    20    12    13 ar  
    21    12    17 ar  
    22    13    14 ar  
    23    13    40 1   
    24    14    15 ar  
    25    14    18 1   
    26    15    16 ar  
    27    15    21 1   
    28    16    17 ar  
    29    16    41 1   
    30    17    42 1   
    31    18    19 1   
    32    19    20 1   
    33    19    43 1   
    34    19    44 1   
    35    20    21 1   
    36    20    45 1   
    37    20    46 1   
    38    21    24 1   
    39    22    34 1   
    40    23    35 1   
    41    24    25 2   
    42    24    26 1   
    43    26    27 1   
    44    26    47 1   
    45    27    28 ar  
    46    27    32 ar  
    47    28    29 ar  
    48    28    48 1   
    49    29    30 ar  
    50    29    49 1   
    51    30    31 ar  
    52    30    33 1   
    53    31    32 ar  
    54    31    50 1   
    55    32    51 1   
    56    34    52 1   
    57    34    53 1   
    58    34    54 1   
    59    35    55 1   
    60    35    56 1   
    61    35    57 1   
@<TRIPOS>SUBSTRUCTURE
     1 2RL         1 TEMP              0 ****  ****    0 ROOT
