@<TRIPOS>MOLECULE
2RL
   57    61     1     0     0
SMALL
abcg2


@<TRIPOS>ATOM
      1 C1          -7.4920     0.7910     0.3280 ca         1 2RL       0.147100
      2 C2          -7.0640    -0.0680     1.3020 ca         1 2RL      -0.185000
      3 C3          -5.7160    -0.4970     1.3570 ca         1 2RL       0.305000
      4 C4          -4.8120    -0.0250     0.3820 ca         1 2RL      -0.093000
      5 C5          -5.2620     0.8650    -0.6240 ca         1 2RL      -0.155000
      6 C6          -6.5680     1.2680    -0.6590 ca         1 2RL       0.116100
      7 N7          -5.3570    -1.3430     2.3490 nb         1 2RL      -0.685000
      8 C8          -4.1090    -1.7340     2.3890 ca         1 2RL       0.377900
      9 C9          -3.1180    -1.3420     1.4770 ca         1 2RL      -0.264000
     10 C10         -3.4740    -0.4770     0.4700 ca         1 2RL       0.188100
     11 O11         -2.6310    -0.0140    -0.4730 os         1 2RL      -0.245200
     12 C12         -1.2950    -0.3400    -0.3980 ca         1 2RL       0.109100
     13 C13         -0.8220    -1.3890    -1.1580 ca         1 2RL      -0.131000
     14 C14          0.5360    -1.6960    -1.1350 ca         1 2RL       0.111100
     15 C15          1.4150    -0.9530    -0.3370 ca         1 2RL      -0.098000
     16 C16          0.8950     0.0770     0.4470 ca         1 2RL      -0.069000
     17 C17         -0.4490     0.4010     0.4130 ca         1 2RL      -0.131000
     18 O25          0.9260    -2.7430    -1.8860 os         1 2RL      -0.330100
     19 C26          2.3200    -2.9870    -1.9750 c6         1 2RL       0.135600
     20 C27          3.0090    -2.7190    -0.6540 c6         1 2RL       0.064000
     21 N28          2.7700    -1.3330    -0.2810 n          1 2RL      -0.245400
     22 O33         -7.0980     2.1050    -1.5620 os         1 2RL      -0.320100
     23 O34         -8.7400     1.2550     0.1970 os         1 2RL      -0.317100
     24 C35          3.7630    -0.3750    -0.2250 c          1 2RL       0.666100
     25 O36          3.5550     0.8040    -0.4360 o          1 2RL      -0.583100
     26 N37          4.9930    -0.8740     0.1110 ns         1 2RL      -0.159000
     27 C38          6.1810    -0.1430     0.1830 ca         1 2RL      -0.014000
     28 C39          6.4590     0.9640    -0.6200 ca         1 2RL      -0.136500
     29 C40          7.6780     1.6150    -0.5110 ca         1 2RL      -0.076000
     30 C41          8.6320     1.1620     0.3850 ca         1 2RL       0.096000
     31 C42          8.3790     0.0540     1.1770 ca         1 2RL      -0.076000
     32 C43          7.1570    -0.5880     1.0750 ca         1 2RL      -0.136500
     33 CL48        10.1540     1.9830     0.5130 cl         1 2RL      -0.200000
     34 C49         -6.2480     2.6260    -2.5660 c3         1 2RL       0.143900
     35 C53         -9.7090     0.8380     1.1400 c3         1 2RL       0.142900
     36 H2          -7.7350    -0.4480     2.0610 ha         1 2RL       0.139000
     37 H5          -4.5610     1.2230    -1.3640 ha         1 2RL       0.136000
     38 H8          -3.8360    -2.4120     3.1910 h4         1 2RL       0.015100
     39 H9          -2.1120    -1.7190     1.5890 ha         1 2RL       0.133000
     40 H13         -1.4910    -1.9690    -1.7800 ha         1 2RL       0.146000
     41 H16          1.5470     0.6330     1.1030 ha         1 2RL       0.136000
     42 H17         -0.8300     1.2120     1.0180 ha         1 2RL       0.137000
     43 H26          2.4380    -4.0300    -2.2660 h1         1 2RL       0.067700
     44 H26A         2.7600    -2.3580    -2.7550 h1         1 2RL       0.067700
     45 H27          2.6390    -3.3890     0.1250 h1         1 2RL       0.067700
     46 H27A         4.0700    -2.9110    -0.7880 h1         1 2RL       0.067700
     47 HN37         5.0200    -1.7640     0.5830 hn         1 2RL       0.154000
     48 H39          5.7430     1.3290    -1.3390 ha         1 2RL       0.129000
     49 H40          7.8780     2.4730    -1.1380 ha         1 2RL       0.131500
     50 H42          9.1200    -0.3100     1.8760 ha         1 2RL       0.131500
     51 H43          6.9650    -1.4500     1.7020 ha         1 2RL       0.129000
     52 H49         -5.4340     3.2170    -2.1400 h1         1 2RL       0.042700
     53 H49A        -5.8220     1.8340    -3.1880 h1         1 2RL       0.042700
     54 H49B        -6.8640     3.2690    -3.1880 h1         1 2RL       0.042700
     55 H53         -9.8620    -0.2440     1.1130 h1         1 2RL       0.044033
     56 H53A        -9.4360     1.1310     2.1570 h1         1 2RL       0.044033
     57 H53B       -10.6370     1.3320     0.8660 h1         1 2RL       0.044033
@<TRIPOS>BOND
     1     1     2 ar  
     2     1     6 ar  
     3     1    23 1   
     4     2     3 ar  
     5     2    36 1   
     6     3     4 ar  
     7     3     7 ar  
     8     4     5 ar  
     9     4    10 ar  
    10     5     6 ar  
    11     5    37 1   
    12     6    22 1   
    13     7     8 ar  
    14     8     9 ar  
    15     8    38 1   
    16     9    10 ar  
    17     9    39 1   
    18    10    11 1   
    19    11    12 1   
    20    12    13 ar  
    21    12    17 ar  
    22    13    14 ar  
    23    13    40 1   
    24    14    15 ar  
    25    14    18 1   
    26    15    16 ar  
    27    15    21 1   
    28    16    17 ar  
    29    16    41 1   
    30    17    42 1   
    31    18    19 1   
    32    19    20 1   
    33    19    43 1   
    34    19    44 1   
    35    20    21 1   
    36    20    45 1   
    37    20    46 1   
    38    21    24 1   
    39    22    34 1   
    40    23    35 1   
    41    24    25 2   
    42    24    26 1   
    43    26    27 1   
    44    26    47 1   
    45    27    28 ar  
    46    27    32 ar  
    47    28    29 ar  
    48    28    48 1   
    49    29    30 ar  
    50    29    49 1   
    51    30    31 ar  
    52    30    33 1   
    53    31    32 ar  
    54    31    50 1   
    55    32    51 1   
    56    34    52 1   
    57    34    53 1   
    58    34    54 1   
    59    35    55 1   
    60    35    56 1   
    61    35    57 1   
@<TRIPOS>SUBSTRUCTURE
     1 2RL         1 TEMP              0 ****  ****    0 ROOT
