@<TRIPOS>MOLECULE
2RM
   46    49     1     0     0
SMALL
bcc


@<TRIPOS>ATOM
      1 C1          -8.1300    -0.1850    -2.5380 cc         1 2RM      -0.147000
      2 C2          -8.1490     0.7950    -1.5240 cc         1 2RM      -0.195000
      3 C3          -7.0020     0.6280    -0.7750 cd         1 2RM      -0.064300
      4 C4          -6.4370     1.2690     0.3510 cd         1 2RM      -0.096000
      5 C5          -5.2550     0.8410     0.8640 cc         1 2RM      -0.125000
      6 C6          -4.5680    -0.2660     0.2710 cc         1 2RM      -0.204600
      7 C7          -5.1130    -0.8730    -0.8180 cd         1 2RM      -0.000300
      8 N8          -6.2950    -0.4440    -1.3300 na         1 2RM       0.041700
      9 C9          -6.9870    -0.9330    -2.4040 cd         1 2RM      -0.188100
     10 C10         -3.2730    -0.8190     0.7610 c          1 2RM       0.692700
     11 O11         -2.6990    -1.7240     0.1710 o          1 2RM      -0.605100
     12 N12         -2.7700    -0.2720     1.8830 ns         1 2RM      -0.570900
     13 C13         -1.5440    -0.7280     2.4790 c3         1 2RM       0.141300
     14 C14         -0.2870    -0.1210     1.9030 ca         1 2RM      -0.039300
     15 C15          0.9340    -0.4520     2.4930 ca         1 2RM      -0.139500
     16 C16          2.1200     0.0710     2.0170 ca         1 2RM      -0.027500
     17 C17          2.0850     0.9250     0.9190 ca         1 2RM      -0.273500
     18 C18          0.8860     1.2690     0.3170 ca         1 2RM      -0.027500
     19 C19         -0.2970     0.7450     0.8180 ca         1 2RM      -0.139500
     20 S20          3.6010     1.5950     0.3060 sy         1 2RM       1.164600
     21 O21          3.2880     2.6360    -0.6660 o          1 2RM      -0.591300
     22 O22          4.4640     1.8970     1.4420 o          1 2RM      -0.591300
     23 C23          4.3320     0.2290    -0.5720 ca         1 2RM      -0.206500
     24 C24          3.9380    -0.0060    -1.8810 ca         1 2RM      -0.098500
     25 C25          4.5130    -1.0820    -2.5280 ca         1 2RM       0.151900
     26 C26          5.4480    -1.9040    -1.9270 ca         1 2RM      -0.174000
     27 C27          5.8030    -1.6180    -0.6230 ca         1 2RM       0.151900
     28 C28          5.2660    -0.5580     0.0820 ca         1 2RM      -0.098500
     29 F29          6.7050    -2.3960    -0.0240 f          1 2RM      -0.130400
     30 F30          4.1600    -1.3390    -3.7880 f          1 2RM      -0.130400
     31 H1          -8.8820    -0.3350    -3.2960 ha         1 2RM       0.155000
     32 H2          -8.9090     1.5400    -1.3510 ha         1 2RM       0.158000
     33 H3          -6.9660     2.1050     0.7900 ha         1 2RM       0.148000
     34 H4          -4.8510     1.3630     1.7200 ha         1 2RM       0.130000
     35 H5          -4.6490    -1.7090    -1.3210 h4         1 2RM       0.183000
     36 H6          -6.6090    -1.7660    -2.9740 h4         1 2RM       0.174000
     37 H7          -3.2730     0.4480     2.3710 hn         1 2RM       0.322500
     38 H8          -1.5900    -0.5010     3.5440 h1         1 2RM       0.068200
     39 H9          -1.4780    -1.8150     2.4000 h1         1 2RM       0.068200
     40 H10          0.9560    -1.1220     3.3440 ha         1 2RM       0.140000
     41 H11          3.0530    -0.1880     2.4990 ha         1 2RM       0.153500
     42 H12          0.8600     1.9390    -0.5310 ha         1 2RM       0.153500
     43 H13         -1.2310     1.0340     0.3550 ha         1 2RM       0.140000
     44 H14          3.2160     0.6190    -2.3890 ha         1 2RM       0.176500
     45 H15          5.8860    -2.7380    -2.4580 ha         1 2RM       0.172000
     46 H16          5.5750    -0.3610     1.0990 ha         1 2RM       0.176500
@<TRIPOS>BOND
     1     1     2 1   
     2     1     9 2   
     3     1    31 1   
     4     2     3 2   
     5     2    32 1   
     6     3     4 1   
     7     3     8 1   
     8     4     5 2   
     9     4    33 1   
    10     5     6 1   
    11     5    34 1   
    12     6     7 2   
    13     6    10 1   
    14     7     8 1   
    15     7    35 1   
    16     8     9 1   
    17     9    36 1   
    18    10    11 2   
    19    10    12 1   
    20    12    13 1   
    21    12    37 1   
    22    13    14 1   
    23    13    38 1   
    24    13    39 1   
    25    14    15 ar  
    26    14    19 ar  
    27    15    16 ar  
    28    15    40 1   
    29    16    17 ar  
    30    16    41 1   
    31    17    18 ar  
    32    17    20 1   
    33    18    19 ar  
    34    18    42 1   
    35    19    43 1   
    36    20    21 2   
    37    20    22 2   
    38    20    23 1   
    39    23    24 ar  
    40    23    28 ar  
    41    24    25 ar  
    42    24    44 1   
    43    25    26 ar  
    44    25    30 1   
    45    26    27 ar  
    46    26    45 1   
    47    27    28 ar  
    48    27    29 1   
    49    28    46 1   
@<TRIPOS>SUBSTRUCTURE
     1 2RM         1 TEMP              0 ****  ****    0 ROOT
