@<TRIPOS>MOLECULE
2RM
   46    49     1     0     0
SMALL
No Charge or Current Charge


@<TRIPOS>ATOM
      1 C1          -8.8350     1.1230    -1.2340 cc         1 2RM      -0.197000
      2 C2          -8.3600     1.6180     0.0180 cc         1 2RM      -0.245000
      3 C3          -7.1580     1.0160     0.2620 cd         1 2RM      -0.115000
      4 C4          -6.2850     1.1690     1.3690 cd         1 2RM      -0.078000
      5 C5          -5.1380     0.4050     1.3040 cc         1 2RM      -0.107000
      6 C6          -4.8720    -0.4830     0.1690 cc         1 2RM      -0.204600
      7 C7          -5.7710    -0.5960    -0.9030 cd         1 2RM      -0.033000
      8 N8          -6.9190     0.1900    -0.8040 na         1 2RM       0.143100
      9 C9          -7.9290     0.2200    -1.7590 cd         1 2RM      -0.238100
     10 C10         -3.6320    -1.3120     0.0900 c          1 2RM       0.625700
     11 O11         -3.3830    -2.0620    -0.8450 o          1 2RM      -0.605100
     12 N12         -2.7690    -1.1830     1.1540 ns         1 2RM      -0.503900
     13 C13         -1.4820    -1.8710     1.2750 c3         1 2RM       0.141300
     14 C14         -0.3370    -1.0140     0.7520 ca         1 2RM      -0.039300
     15 C15          0.3530    -0.1450     1.6180 ca         1 2RM      -0.121500
     16 C16          1.4080     0.6500     1.1380 ca         1 2RM      -0.009500
     17 C17          1.7790     0.5850    -0.2210 ca         1 2RM      -0.273500
     18 C18          1.0910    -0.2870    -1.0900 ca         1 2RM      -0.009500
     19 C19          0.0380    -1.0790    -0.6030 ca         1 2RM      -0.121500
     20 S20          3.1460     1.5900    -0.8380 sy         1 2RM       1.023000
     21 O21          2.9560     1.7670    -2.2850 o          1 2RM      -0.520500
     22 O22          3.2940     2.7460     0.0570 o          1 2RM      -0.520500
     23 C23          4.5790     0.5120    -0.5950 ca         1 2RM      -0.206500
     24 C24          4.9780    -0.3880    -1.6110 ca         1 2RM      -0.080500
     25 C25          6.0830    -1.2320    -1.4090 ca         1 2RM       0.187000
     26 C26          6.7980    -1.1950    -0.2030 ca         1 2RM      -0.156000
     27 C27          6.4020    -0.3070     0.8080 ca         1 2RM       0.187000
     28 C28          5.2990     0.5430     0.6210 ca         1 2RM      -0.080500
     29 F29          7.0870    -0.2720     1.9720 f          1 2RM      -0.165500
     30 F30          6.4600    -2.0880    -2.3840 f          1 2RM      -0.165500
     31 H1          -9.7760     1.4230    -1.6950 ha         1 2RM       0.205000
     32 H2          -8.8720     2.3420     0.6510 ha         1 2RM       0.208000
     33 H3          -6.5000     1.8320     2.2010 ha         1 2RM       0.130000
     34 H4          -4.4310     0.4800     2.1220 ha         1 2RM       0.112000
     35 H5          -5.6540    -1.2240    -1.7780 h4         1 2RM       0.165000
     36 H6          -7.9230    -0.3650    -2.6750 h4         1 2RM       0.224000
     37 H7          -3.0400    -0.5420     1.8850 hn         1 2RM       0.322500
     38 H8          -1.3090    -2.1090     2.3330 h1         1 2RM       0.068200
     39 H9          -1.5140    -2.8230     0.7280 h1         1 2RM       0.068200
     40 H10          0.0730    -0.0840     2.6670 ha         1 2RM       0.122000
     41 H11          1.9320     1.3120     1.8260 ha         1 2RM       0.135500
     42 H12          1.3670    -0.3560    -2.1410 ha         1 2RM       0.135500
     43 H13         -0.4900    -1.7450    -1.2820 ha         1 2RM       0.122000
     44 H14          4.4380    -0.4380    -2.5540 ha         1 2RM       0.158500
     45 H15          7.6510    -1.8500    -0.0530 ha         1 2RM       0.154000
     46 H16          5.0110     1.2190     1.4230 ha         1 2RM       0.158500
@<TRIPOS>BOND
     1     1     2 1   
     2     1     9 2   
     3     1    31 1   
     4     2     3 2   
     5     2    32 1   
     6     3     4 1   
     7     3     8 1   
     8     4     5 2   
     9     4    33 1   
    10     5     6 1   
    11     5    34 1   
    12     6     7 2   
    13     6    10 1   
    14     7     8 1   
    15     7    35 1   
    16     8     9 1   
    17     9    36 1   
    18    10    11 2   
    19    10    12 1   
    20    12    13 1   
    21    12    37 1   
    22    13    14 1   
    23    13    38 1   
    24    13    39 1   
    25    14    15 ar  
    26    14    19 ar  
    27    15    16 ar  
    28    15    40 1   
    29    16    17 ar  
    30    16    41 1   
    31    17    18 ar  
    32    17    20 1   
    33    18    19 ar  
    34    18    42 1   
    35    19    43 1   
    36    20    21 2   
    37    20    22 2   
    38    20    23 1   
    39    23    24 ar  
    40    23    28 ar  
    41    24    25 ar  
    42    24    44 1   
    43    25    26 ar  
    44    25    30 1   
    45    26    27 ar  
    46    26    45 1   
    47    27    28 ar  
    48    27    29 1   
    49    28    46 1   
@<TRIPOS>SUBSTRUCTURE
     1 2RM         1 TEMP              0 ****  ****    0 ROOT
