@<TRIPOS>MOLECULE
2RN
   39    42     1     0     0
SMALL
No Charge or Current Charge


@<TRIPOS>ATOM
      1 C01          6.2830     0.2570     0.2130 ca         1 2RN      -0.099000
      2 C02          5.6360    -0.9870     0.2690 ca         1 2RN      -0.111500
      3 C03          4.2330    -1.0560     0.2060 ca         1 2RN      -0.088000
      4 C04          3.4550     0.1190     0.0860 ca         1 2RN      -0.125500
      5 C05          4.1220     1.3660     0.0300 ca         1 2RN      -0.088000
      6 C06          5.5250     1.4320     0.0930 ca         1 2RN      -0.111500
      7 C07          1.9860     0.0350     0.0200 cc         1 2RN       0.470000
      8 N08          1.1530     1.1200    -0.0980 na         1 2RN      -0.282500
      9 C09         -0.1360     0.6470    -0.1040 cc         1 2RN      -0.128000
     10 C10         -0.0520    -0.7290    -0.0250 cd         1 2RN       0.307500
     11 N11          1.2830    -1.0890     0.0550 nd         1 2RN      -0.663000
     12 C12         -1.1130    -1.7660    -0.1370 ca         1 2RN      -0.066500
     13 C13         -2.3880    -1.5140    -0.6930 ca         1 2RN      -0.146500
     14 C14         -3.3240    -2.5560    -0.8050 ca         1 2RN       0.326400
     15 N15         -3.0660    -3.8260    -0.4220 nb         1 2RN      -0.665000
     16 C16         -1.8380    -4.0870     0.0800 ca         1 2RN       0.326400
     17 C17         -0.8450    -3.1050     0.2250 ca         1 2RN      -0.146500
     18 C18         -1.3570     1.4480    -0.1180 ca         1 2RN       0.014000
     19 C19         -2.3640     1.2410     0.8450 ca         1 2RN      -0.124000
     20 C20         -3.5230     2.0310     0.8400 ca         1 2RN       0.142100
     21 C21         -3.6800     3.0450    -0.1180 ca         1 2RN      -0.200000
     22 C22         -2.6710     3.2720    -1.0690 ca         1 2RN      -0.068000
     23 C23         -1.5110     2.4790    -1.0630 ca         1 2RN      -0.147000
     24 O24         -4.4940     1.8140     1.7710 oh         1 2RN      -0.528100
     25 H1           7.3690     0.3100     0.2610 ha         1 2RN       0.116000
     26 H2           6.2210    -1.8990     0.3610 ha         1 2RN       0.116500
     27 H3           3.7530    -2.0310     0.2520 ha         1 2RN       0.120000
     28 H4           3.5630     2.2950    -0.0630 ha         1 2RN       0.120000
     29 H5           6.0250     2.3970     0.0490 ha         1 2RN       0.116500
     30 H6           1.4460     2.0860    -0.1340 hn         1 2RN       0.358000
     31 H8          -2.6630    -0.5380    -1.0750 ha         1 2RN       0.131500
     32 H9          -4.3090    -2.3710    -1.2310 h4         1 2RN       0.015600
     33 H10         -1.6440    -5.1190     0.3720 h4         1 2RN       0.015600
     34 H11          0.1200    -3.3920     0.6330 ha         1 2RN       0.131500
     35 H12         -2.2470     0.4660     1.5970 ha         1 2RN       0.143000
     36 H13         -4.5760     3.6620    -0.1280 ha         1 2RN       0.116000
     37 H14         -2.7870     4.0610    -1.8090 ha         1 2RN       0.116000
     38 H15         -0.7330     2.6600    -1.8020 ha         1 2RN       0.117000
     39 H16         -5.2190     2.4570     1.6180 ho         1 2RN       0.467000
@<TRIPOS>BOND
     1     1     2 ar  
     2     1     6 ar  
     3     1    25 1   
     4     2     3 ar  
     5     2    26 1   
     6     3     4 ar  
     7     3    27 1   
     8     4     5 ar  
     9     4     7 1   
    10     5     6 ar  
    11     5    28 1   
    12     6    29 1   
    13     7     8 1   
    14     7    11 2   
    15     8     9 1   
    16     8    30 1   
    17     9    10 2   
    18     9    18 1   
    19    10    11 1   
    20    10    12 1   
    21    12    13 ar  
    22    12    17 ar  
    23    13    14 ar  
    24    13    31 1   
    25    14    15 ar  
    26    14    32 1   
    27    15    16 ar  
    28    16    17 ar  
    29    16    33 1   
    30    17    34 1   
    31    18    19 ar  
    32    18    23 ar  
    33    19    20 ar  
    34    19    35 1   
    35    20    21 ar  
    36    20    24 1   
    37    21    22 ar  
    38    21    36 1   
    39    22    23 ar  
    40    22    37 1   
    41    23    38 1   
    42    24    39 1   
@<TRIPOS>SUBSTRUCTURE
     1 2RN         1 TEMP              0 ****  ****    0 ROOT
