@<TRIPOS>MOLECULE
2RN
   39    42     1     0     0
SMALL
abcg2


@<TRIPOS>ATOM
      1 C01          6.1600     0.2990     0.1680 ca         1 2RN      -0.099000
      2 C02          5.5230    -0.9010     0.4610 ca         1 2RN      -0.111500
      3 C03          4.1430    -0.9920     0.4020 ca         1 2RN      -0.088000
      4 C04          3.3760     0.1200     0.0460 ca         1 2RN      -0.125500
      5 C05          4.0220     1.3200    -0.2530 ca         1 2RN      -0.088000
      6 C06          5.4050     1.4070    -0.1890 ca         1 2RN      -0.111500
      7 C07          1.9240    -0.0050    -0.0140 cc         1 2RN       0.470000
      8 N08          1.0700     1.0460    -0.0380 na         1 2RN      -0.282500
      9 C09         -0.2060     0.5690    -0.0840 cc         1 2RN      -0.128000
     10 C10         -0.0640    -0.8050    -0.1080 cd         1 2RN       0.307500
     11 N11          1.2590    -1.1330    -0.0540 nd         1 2RN      -0.663000
     12 C12         -1.0760    -1.8520    -0.2240 ca         1 2RN      -0.066500
     13 C13         -2.3050    -1.6500    -0.8520 ca         1 2RN      -0.146500
     14 C14         -3.2000    -2.7040    -0.9380 ca         1 2RN       0.326400
     15 N15         -2.9610    -3.9200    -0.4600 nb         1 2RN      -0.665000
     16 C16         -1.7850    -4.1160     0.1260 ca         1 2RN       0.326400
     17 C17         -0.8200    -3.1330     0.2650 ca         1 2RN      -0.146500
     18 C18         -1.3580     1.4700    -0.0650 ca         1 2RN       0.014000
     19 C19         -2.4290     1.2120     0.7860 ca         1 2RN      -0.124000
     20 C20         -3.5250     2.0680     0.8110 ca         1 2RN       0.142100
     21 C21         -3.5430     3.1980    -0.0050 ca         1 2RN      -0.200000
     22 C22         -2.4660     3.4570    -0.8390 ca         1 2RN      -0.068000
     23 C23         -1.3740     2.6040    -0.8790 ca         1 2RN      -0.147000
     24 O24         -4.5320     1.7660     1.6520 oh         1 2RN      -0.528100
     25 H1           7.2390     0.3680     0.2150 ha         1 2RN       0.116000
     26 H2           6.1040    -1.7700     0.7420 ha         1 2RN       0.116500
     27 H3           3.6500    -1.9260     0.6380 ha         1 2RN       0.120000
     28 H4           3.4590     2.1940    -0.5560 ha         1 2RN       0.120000
     29 H5           5.8910     2.3440    -0.4290 ha         1 2RN       0.116500
     30 H6           1.3120     2.0200     0.0670 hn         1 2RN       0.358000
     31 H8          -2.5690    -0.6960    -1.2850 ha         1 2RN       0.131500
     32 H9          -4.1560    -2.5540    -1.4280 h4         1 2RN       0.015600
     33 H10         -1.5940    -5.1120     0.5100 h4         1 2RN       0.015600
     34 H11          0.1180    -3.3620     0.7520 ha         1 2RN       0.131500
     35 H12         -2.4110     0.3500     1.4420 ha         1 2RN       0.143000
     36 H13         -4.3920     3.8710     0.0120 ha         1 2RN       0.116000
     37 H14         -2.4850     4.3350    -1.4710 ha         1 2RN       0.116000
     38 H15         -0.5520     2.8080    -1.5530 ha         1 2RN       0.117000
     39 H16         -5.2200     2.4400     1.6100 ho         1 2RN       0.467000
@<TRIPOS>BOND
     1     1     2 ar  
     2     1     6 ar  
     3     1    25 1   
     4     2     3 ar  
     5     2    26 1   
     6     3     4 ar  
     7     3    27 1   
     8     4     5 ar  
     9     4     7 1   
    10     5     6 ar  
    11     5    28 1   
    12     6    29 1   
    13     7     8 1   
    14     7    11 2   
    15     8     9 1   
    16     8    30 1   
    17     9    10 2   
    18     9    18 1   
    19    10    11 1   
    20    10    12 1   
    21    12    13 ar  
    22    12    17 ar  
    23    13    14 ar  
    24    13    31 1   
    25    14    15 ar  
    26    14    32 1   
    27    15    16 ar  
    28    16    17 ar  
    29    16    33 1   
    30    17    34 1   
    31    18    19 ar  
    32    18    23 ar  
    33    19    20 ar  
    34    19    35 1   
    35    20    21 ar  
    36    20    24 1   
    37    21    22 ar  
    38    21    36 1   
    39    22    23 ar  
    40    22    37 1   
    41    23    38 1   
    42    24    39 1   
@<TRIPOS>SUBSTRUCTURE
     1 2RN         1 TEMP              0 ****  ****    0 ROOT
