@<TRIPOS>MOLECULE
2RO
   42    43     1     0     0
SMALL
abcg2


@<TRIPOS>ATOM
      1 OAD          1.4670     2.4840    -0.0610 o          1 2RO      -0.688500
      2 CAP          2.6830     2.2720     0.0000 c          1 2RO       0.718200
      3 OAG          3.6120     3.1000    -0.0210 o          1 2RO      -0.688500
      4 CAS          3.1510     0.8050     0.0970 cc         1 2RO       0.026400
      5 NAN          4.5020     0.6920    -0.0920 ns         1 2RO      -0.493600
      6 CAU          5.2020    -0.4700    -0.0920 c          1 2RO       0.605000
      7 OAE          6.4050    -0.5370    -0.2650 o          1 2RO      -0.610000
      8 NAO          4.4160    -1.5720     0.1200 ns         1 2RO      -0.471500
      9 CAV          3.0510    -1.5900     0.3360 c          1 2RO       0.578200
     10 OAF          2.4830    -2.6570     0.5070 o          1 2RO      -0.589000
     11 CAT          2.3890    -0.2910     0.3350 cd         1 2RO      -0.293400
     12 CAM          0.9060    -0.2960     0.5550 c3         1 2RO       0.018800
     13 CAL          0.1270    -0.4860    -0.7540 c3         1 2RO      -0.032100
     14 CAQ         -1.3560    -0.3860    -0.5420 ca         1 2RO      -0.055300
     15 CAH         -1.9640     0.8600    -0.3790 ca         1 2RO      -0.108500
     16 CAJ         -3.3250     0.9670    -0.1520 ca         1 2RO      -0.117500
     17 CAR         -4.1460    -0.1630    -0.0710 ca         1 2RO      -0.090300
     18 CAW         -5.6430     0.0010     0.1700 c3         1 2RO       0.006300
     19 CAB         -5.8730     0.8100     1.4540 c3         1 2RO      -0.079433
     20 CAC         -6.2650     0.7450    -1.0190 c3         1 2RO      -0.079433
     21 CAA         -6.3560    -1.3430     0.3200 c3         1 2RO      -0.079433
     22 CAK         -3.5340    -1.4020    -0.2320 ca         1 2RO      -0.117500
     23 CAI         -2.1650    -1.5100    -0.4640 ca         1 2RO      -0.108500
     24 H2           4.9960     1.5670    -0.2250 hn         1 2RO       0.489000
     25 H3           4.8880    -2.4670     0.1140 hn         1 2RO       0.318500
     26 H4           0.6530    -1.1070     1.2410 hc         1 2RO       0.056700
     27 H5           0.5940     0.6320     1.0230 hc         1 2RO       0.056700
     28 H6           0.4520     0.2790    -1.4620 hc         1 2RO       0.052200
     29 H7           0.3780    -1.4550    -1.1900 hc         1 2RO       0.052200
     30 H8          -1.3560     1.7560    -0.4320 ha         1 2RO       0.126500
     31 H9          -3.7510     1.9560    -0.0370 ha         1 2RO       0.099000
     32 H10         -5.4650     1.8190     1.3840 hc         1 2RO       0.030256
     33 H11         -6.9430     0.9040     1.6540 hc         1 2RO       0.030256
     34 H12         -5.4130     0.3220     2.3140 hc         1 2RO       0.030256
     35 H13         -6.1510     0.1730    -1.9420 hc         1 2RO       0.030256
     36 H14         -7.3340     0.9030    -0.8550 hc         1 2RO       0.030256
     37 H15         -5.8080     1.7230    -1.1760 hc         1 2RO       0.030256
     38 H16         -5.9690    -1.9170     1.1650 hc         1 2RO       0.030256
     39 H17         -7.4200    -1.1770     0.4970 hc         1 2RO       0.030256
     40 H18         -6.2660    -1.9600    -0.5760 hc         1 2RO       0.030256
     41 H19         -4.1180    -2.3110    -0.1810 ha         1 2RO       0.099000
     42 H20         -1.7280    -2.4950    -0.5900 ha         1 2RO       0.126500
@<TRIPOS>BOND
     1     1     2 1   
     2     2     3 1   
     3     2     4 1   
     4     4     5 1   
     5     4    11 2   
     6     5     6 1   
     7     5    24 1   
     8     6     7 2   
     9     6     8 1   
    10     8     9 1   
    11     8    25 1   
    12     9    10 2   
    13     9    11 1   
    14    11    12 1   
    15    12    13 1   
    16    12    26 1   
    17    12    27 1   
    18    13    14 1   
    19    13    28 1   
    20    13    29 1   
    21    14    15 ar  
    22    14    23 ar  
    23    15    16 ar  
    24    15    30 1   
    25    16    17 ar  
    26    16    31 1   
    27    17    18 1   
    28    17    22 ar  
    29    18    19 1   
    30    18    20 1   
    31    18    21 1   
    32    19    32 1   
    33    19    33 1   
    34    19    34 1   
    35    20    35 1   
    36    20    36 1   
    37    20    37 1   
    38    21    38 1   
    39    21    39 1   
    40    21    40 1   
    41    22    23 ar  
    42    22    41 1   
    43    23    42 1   
@<TRIPOS>SUBSTRUCTURE
     1 2RO         1 TEMP              0 ****  ****    0 ROOT
