@<TRIPOS>MOLECULE
2RO
   42    43     1     0     0
SMALL
No Charge or Current Charge


@<TRIPOS>ATOM
      1 OAD          1.7020     2.6430    -0.0170 o          1 2RO      -0.688500
      2 CAP          2.8710     2.2970    -0.1080 c          1 2RO       0.718200
      3 OAG          3.7630     3.1070    -0.3390 o          1 2RO      -0.688500
      4 CAS          3.2740     0.8370     0.0480 cc         1 2RO       0.026400
      5 NAN          4.6350     0.5790    -0.1140 ns         1 2RO      -0.493600
      6 CAU          5.2390    -0.6310    -0.0480 c          1 2RO       0.605000
      7 OAE          6.4360    -0.7780    -0.2030 o          1 2RO      -0.610000
      8 NAO          4.3960    -1.6580     0.2020 ns         1 2RO      -0.471500
      9 CAV          3.0490    -1.6170     0.3950 c          1 2RO       0.578200
     10 OAF          2.4280    -2.6470     0.6070 o          1 2RO      -0.589000
     11 CAT          2.4430    -0.2520     0.3200 cd         1 2RO      -0.293400
     12 CAM          0.9380    -0.2040     0.5500 c3         1 2RO       0.018800
     13 CAL          0.1370    -0.3040    -0.7650 c3         1 2RO      -0.032100
     14 CAQ         -1.3670    -0.2520    -0.5290 ca         1 2RO      -0.055300
     15 CAH         -2.0240     0.9830    -0.4070 ca         1 2RO      -0.108500
     16 CAJ         -3.4100     1.0330    -0.1850 ca         1 2RO      -0.117500
     17 CAR         -4.1790    -0.1500    -0.0770 ca         1 2RO      -0.090300
     18 CAW         -5.7090    -0.0480     0.1700 c3         1 2RO       0.006300
     19 CAB         -5.9650     0.7030     1.5050 c3         1 2RO      -0.079433
     20 CAC         -6.3660     0.7380    -0.9970 c3         1 2RO      -0.079433
     21 CAA         -6.4050    -1.4360     0.2620 c3         1 2RO      -0.079433
     22 CAK         -3.5020    -1.3890    -0.2000 ca         1 2RO      -0.117500
     23 CAI         -2.1150    -1.4360    -0.4220 ca         1 2RO      -0.108500
     24 H2           5.2580     1.3570    -0.3090 hn         1 2RO       0.489000
     25 H3           4.8190    -2.5700     0.2530 hn         1 2RO       0.318500
     26 H4           0.6160    -1.0180     1.2120 hc         1 2RO       0.056700
     27 H5           0.6480     0.7030     1.0890 hc         1 2RO       0.056700
     28 H6           0.4390     0.5110    -1.4340 hc         1 2RO       0.052200
     29 H7           0.4080    -1.2340    -1.2800 hc         1 2RO       0.052200
     30 H8          -1.4580     1.9090    -0.4830 ha         1 2RO       0.126500
     31 H9          -3.8830     2.0070    -0.0960 ha         1 2RO       0.099000
     32 H10         -5.5790     1.7280     1.4730 hc         1 2RO       0.030256
     33 H11         -7.0380     0.7620     1.7230 hc         1 2RO       0.030256
     34 H12         -5.4770     0.1850     2.3390 hc         1 2RO       0.030256
     35 H13         -6.1660     0.2440    -1.9560 hc         1 2RO       0.030256
     36 H14         -7.4540     0.7980    -0.8670 hc         1 2RO       0.030256
     37 H15         -5.9850     1.7640    -1.0600 hc         1 2RO       0.030256
     38 H16         -5.9990    -2.0280     1.0920 hc         1 2RO       0.030256
     39 H17         -7.4820    -1.3220     0.4360 hc         1 2RO       0.030256
     40 H18         -6.2800    -2.0040    -0.6680 hc         1 2RO       0.030256
     41 H19         -4.0300    -2.3340    -0.1260 ha         1 2RO       0.099000
     42 H20         -1.6200    -2.4010    -0.5100 ha         1 2RO       0.126500
@<TRIPOS>BOND
     1     1     2 1   
     2     2     3 1   
     3     2     4 1   
     4     4     5 1   
     5     4    11 2   
     6     5     6 1   
     7     5    24 1   
     8     6     7 2   
     9     6     8 1   
    10     8     9 1   
    11     8    25 1   
    12     9    10 2   
    13     9    11 1   
    14    11    12 1   
    15    12    13 1   
    16    12    26 1   
    17    12    27 1   
    18    13    14 1   
    19    13    28 1   
    20    13    29 1   
    21    14    15 ar  
    22    14    23 ar  
    23    15    16 ar  
    24    15    30 1   
    25    16    17 ar  
    26    16    31 1   
    27    17    18 1   
    28    17    22 ar  
    29    18    19 1   
    30    18    20 1   
    31    18    21 1   
    32    19    32 1   
    33    19    33 1   
    34    19    34 1   
    35    20    35 1   
    36    20    36 1   
    37    20    37 1   
    38    21    38 1   
    39    21    39 1   
    40    21    40 1   
    41    22    23 ar  
    42    22    41 1   
    43    23    42 1   
@<TRIPOS>SUBSTRUCTURE
     1 2RO         1 TEMP              0 ****  ****    0 ROOT
