@<TRIPOS>MOLECULE
2RP
   18    17     1     0     0
SMALL
No Charge or Current Charge


@<TRIPOS>ATOM
      1 C1          17.3530   -14.0730    34.6060 c3         1 2RP      -0.091100
      2 C2          16.0880   -13.6420    35.3750 c3         1 2RP      -0.073400
      3 C6          16.2510   -13.6250    36.9170 c3         1 2RP      -0.074400
      4 C9          17.3370   -12.6640    37.4700 c3         1 2RP       0.173300
      5 C13         17.0780   -11.1790    37.1450 c3         1 2RP      -0.128100
      6 O17         17.3950   -12.8110    38.8910 oh         1 2RP      -0.665000
      7 H1          17.1390   -14.1450    33.5330 hc         1 2RP       0.031700
      8 H1A         18.1640   -13.3480    34.7400 hc         1 2RP       0.031700
      9 H1B         17.7020   -15.0540    34.9500 hc         1 2RP       0.031700
     10 H2          15.7670   -12.6540    35.0220 hc         1 2RP       0.038700
     11 H2A         15.2760   -14.3350    35.1230 hc         1 2RP       0.038700
     12 H6          15.2850   -13.3650    37.3660 hc         1 2RP       0.051700
     13 H6A         16.4810   -14.6440    37.2510 hc         1 2RP       0.051700
     14 H9          18.3070   -12.9460    37.0390 h1         1 2RP       0.026700
     15 H13         17.8410   -10.5410    37.6080 hc         1 2RP       0.039367
     16 H13A        17.1150   -11.0040    36.0630 hc         1 2RP       0.039367
     17 H13B        16.0940   -10.8620    37.5120 hc         1 2RP       0.039367
     18 HO17        18.1220   -12.2310    39.2080 ho         1 2RP       0.439000
@<TRIPOS>BOND
     1     1     2 1   
     2     1     7 1   
     3     1     8 1   
     4     1     9 1   
     5     2     3 1   
     6     2    10 1   
     7     2    11 1   
     8     3     4 1   
     9     3    12 1   
    10     3    13 1   
    11     4     5 1   
    12     4     6 1   
    13     4    14 1   
    14     5    15 1   
    15     5    16 1   
    16     5    17 1   
    17     6    18 1   
@<TRIPOS>SUBSTRUCTURE
     1 2RP         1 TEMP              0 ****  ****    0 ROOT
