@<TRIPOS>MOLECULE
2RP
   18    17     1     0     0
SMALL
abcg2


@<TRIPOS>ATOM
      1 C1          17.3420   -14.0050    34.6390 c3         1 2RP      -0.091100
      2 C2          16.0900   -13.6220    35.4180 c3         1 2RP      -0.073400
      3 C6          16.2660   -13.6240    36.9340 c3         1 2RP      -0.074400
      4 C9          17.3390   -12.6810    37.4650 c3         1 2RP       0.173300
      5 C13         17.0950   -11.2300    37.0730 c3         1 2RP      -0.128100
      6 O17         17.3490   -12.8380    38.8750 oh         1 2RP      -0.665000
      7 H1          17.1300   -14.0760    33.5710 hc         1 2RP       0.031700
      8 H1A         18.1410   -13.2730    34.7630 hc         1 2RP       0.031700
      9 H1B         17.7300   -14.9730    34.9630 hc         1 2RP       0.031700
     10 H2          15.7360   -12.6430    35.0840 hc         1 2RP       0.038700
     11 H2A         15.2890   -14.3240    35.1710 hc         1 2RP       0.038700
     12 H6          15.3120   -13.3610    37.4040 hc         1 2RP       0.051700
     13 H6A         16.5050   -14.6410    37.2640 hc         1 2RP       0.051700
     14 H9          18.3110   -12.9840    37.0510 h1         1 2RP       0.026700
     15 H13         17.8400   -10.5740    37.5270 hc         1 2RP       0.039367
     16 H13A        17.1650   -11.0950    35.9930 hc         1 2RP       0.039367
     17 H13B        16.1060   -10.8950    37.3930 hc         1 2RP       0.039367
     18 HO17        18.0490   -12.2820    39.2310 ho         1 2RP       0.439000
@<TRIPOS>BOND
     1     1     2 1   
     2     1     7 1   
     3     1     8 1   
     4     1     9 1   
     5     2     3 1   
     6     2    10 1   
     7     2    11 1   
     8     3     4 1   
     9     3    12 1   
    10     3    13 1   
    11     4     5 1   
    12     4     6 1   
    13     4    14 1   
    14     5    15 1   
    15     5    16 1   
    16     5    17 1   
    17     6    18 1   
@<TRIPOS>SUBSTRUCTURE
     1 2RP         1 TEMP              0 ****  ****    0 ROOT
