@<TRIPOS>MOLECULE
2RQ
   57    61     1     0     0
SMALL
No Charge or Current Charge


@<TRIPOS>ATOM
      1 C01          1.8870     4.0170     1.5720 c3         1 2RQ       0.147900
      2 O02          2.2480     2.7110     1.0920 os         1 2RQ      -0.329100
      3 C03          3.5260     2.4060     0.6530 ca         1 2RQ       0.144100
      4 C04          4.5730     3.3560     0.6880 ca         1 2RQ      -0.193000
      5 C05          5.8640     3.0050     0.2550 ca         1 2RQ      -0.068000
      6 C06          6.1230     1.7050    -0.2100 ca         1 2RQ      -0.140000
      7 C07          5.0910     0.7530    -0.2490 ca         1 2RQ      -0.066000
      8 C08          3.7950     1.1000     0.1690 ca         1 2RQ       0.073100
      9 O09          2.8080     0.1350     0.1170 os         1 2RQ      -0.322400
     10 C10          1.6270     0.3230    -0.5660 ca         1 2RQ       0.363300
     11 N11          1.6380     1.1040    -1.6740 nb         1 2RQ      -0.228000
     12 C12          0.4720     1.2720    -2.3220 ca         1 2RQ       0.143900
     13 C13         -0.7060     0.6620    -1.8730 ca         1 2RQ      -0.266000
     14 C14         -0.6290    -0.1390    -0.7230 ca         1 2RQ       0.236500
     15 N15          0.5400    -0.3070    -0.0740 nb         1 2RQ      -0.169000
     16 C16         -1.8210    -0.7960    -0.1960 cc         1 2RQ      -0.267500
     17 C17         -1.8910    -2.1190     0.1910 cd         1 2RQ       0.352500
     18 N18         -3.1100    -2.3450     0.8080 nd         1 2RQ      -0.674000
     19 C19         -3.7450    -1.1820     0.8250 cc         1 2RQ       0.407400
     20 N20         -2.9840    -0.1930     0.2360 na         1 2RQ      -0.152500
     21 C21         -3.3310     1.2450     0.1530 c6         1 2RQ       0.079300
     22 C22         -3.6250     1.8440     1.5530 c6         1 2RQ      -0.129900
     23 C23         -4.0170     3.3340     1.4340 c6         1 2RQ       0.150300
     24 N24         -5.1700     3.5030     0.5150 n7         1 2RQ      -0.845400
     25 C25         -4.9070     2.9750    -0.8460 c6         1 2RQ       0.150300
     26 C26         -4.5360     1.4750    -0.7920 c6         1 2RQ      -0.129900
     27 C27         -0.9650    -3.2490    -0.0880 ca         1 2RQ      -0.116500
     28 C28         -0.0210    -3.2080    -1.1430 ca         1 2RQ      -0.057000
     29 C29          0.8150    -4.3090    -1.4040 ca         1 2RQ      -0.157500
     30 C30          0.7050    -5.4720    -0.6320 ca         1 2RQ       0.173000
     31 C31         -0.2490    -5.5490     0.3900 ca         1 2RQ      -0.157500
     32 C32         -1.0870    -4.4500     0.6520 ca         1 2RQ      -0.057000
     33 F33          1.5070    -6.5280    -0.8870 f          1 2RQ      -0.183000
     34 H011         0.8280     4.0360     1.8580 h1         1 2RQ       0.042700
     35 H012         2.4810     4.2870     2.4540 h1         1 2RQ       0.042700
     36 H013         2.0430     4.7750     0.7950 h1         1 2RQ       0.042700
     37 H041         4.4070     4.3670     1.0500 ha         1 2RQ       0.119000
     38 H051         6.6660     3.7400     0.2850 ha         1 2RQ       0.114000
     39 H061         7.1240     1.4360    -0.5390 ha         1 2RQ       0.121000
     40 H071         5.2920    -0.2530    -0.6100 ha         1 2RQ       0.131000
     41 H121         0.4850     1.9020    -3.2100 h4         1 2RQ       0.025100
     42 H131        -1.6440     0.7980    -2.4040 ha         1 2RQ       0.137000
     43 H191        -4.7250    -0.9900     1.2460 h5         1 2RQ       0.056100
     44 H211        -2.4690     1.7880    -0.2590 h1         1 2RQ       0.076700
     45 H222        -4.4360     1.2930     2.0470 hc         1 2RQ       0.058700
     46 H221        -2.7390     1.7450     2.1960 hc         1 2RQ       0.058700
     47 H231        -4.2710     3.7310     2.4290 h1         1 2RQ       0.058950
     48 H232        -3.1580     3.9120     1.0590 h1         1 2RQ       0.058950
     49 H241        -5.9740     2.9980     0.9090 hn         1 2RQ       0.409000
     50 H252        -5.7980     3.1130    -1.4780 h1         1 2RQ       0.058950
     51 H251        -4.0840     3.5410    -1.3100 h1         1 2RQ       0.058950
     52 H262        -4.2940     1.1190    -1.8020 hc         1 2RQ       0.058700
     53 H261        -5.4050     0.8940    -0.4530 hc         1 2RQ       0.058700
     54 H281         0.0560    -2.3440    -1.7940 ha         1 2RQ       0.121000
     55 H291         1.5390    -4.2640    -2.2130 ha         1 2RQ       0.129000
     56 H311        -0.3420    -6.4590     0.9770 ha         1 2RQ       0.129000
     57 H321        -1.8210    -4.5320     1.4500 ha         1 2RQ       0.121000
@<TRIPOS>BOND
     1     1     2 1   
     2     1    34 1   
     3     1    35 1   
     4     1    36 1   
     5     2     3 1   
     6     3     4 ar  
     7     3     8 ar  
     8     4     5 ar  
     9     4    37 1   
    10     5     6 ar  
    11     5    38 1   
    12     6     7 ar  
    13     6    39 1   
    14     7     8 ar  
    15     7    40 1   
    16     8     9 1   
    17     9    10 1   
    18    10    11 ar  
    19    10    15 ar  
    20    11    12 ar  
    21    12    13 ar  
    22    12    41 1   
    23    13    14 ar  
    24    13    42 1   
    25    14    15 ar  
    26    14    16 1   
    27    16    17 2   
    28    16    20 1   
    29    17    18 1   
    30    17    27 1   
    31    18    19 2   
    32    19    20 1   
    33    19    43 1   
    34    20    21 1   
    35    21    22 1   
    36    21    26 1   
    37    21    44 1   
    38    22    23 1   
    39    22    45 1   
    40    22    46 1   
    41    23    24 1   
    42    23    47 1   
    43    23    48 1   
    44    24    25 1   
    45    24    49 1   
    46    25    26 1   
    47    25    50 1   
    48    25    51 1   
    49    26    52 1   
    50    26    53 1   
    51    27    28 ar  
    52    27    32 ar  
    53    28    29 ar  
    54    28    54 1   
    55    29    30 ar  
    56    29    55 1   
    57    30    31 ar  
    58    30    33 1   
    59    31    32 ar  
    60    31    56 1   
    61    32    57 1   
@<TRIPOS>SUBSTRUCTURE
     1 2RQ         1 TEMP              0 ****  ****    0 ROOT
