@<TRIPOS>MOLECULE
2RQ
   57    61     1     0     0
SMALL
abcg2


@<TRIPOS>ATOM
      1 C01          2.5640     4.1370     1.8270 c3         1 2RQ       0.147900
      2 O02          2.6060     2.8190     1.3130 os         1 2RQ      -0.329100
      3 C03          3.7250     2.4100     0.6990 ca         1 2RQ       0.144100
      4 C04          4.8820     3.1660     0.5410 ca         1 2RQ      -0.193000
      5 C05          5.9830     2.6270    -0.1170 ca         1 2RQ      -0.068000
      6 C06          5.9480     1.3390    -0.6230 ca         1 2RQ      -0.140000
      7 C07          4.7920     0.5790    -0.4730 ca         1 2RQ      -0.066000
      8 C08          3.7020     1.1100     0.1800 ca         1 2RQ       0.073100
      9 O09          2.5880     0.3290     0.3900 os         1 2RQ      -0.322400
     10 C10          1.4780     0.5790    -0.3170 ca         1 2RQ       0.363300
     11 N11          1.5310     1.4530    -1.3020 nb         1 2RQ      -0.228000
     12 C12          0.4000     1.6350    -1.9700 ca         1 2RQ       0.143900
     13 C13         -0.7620     0.9500    -1.6670 ca         1 2RQ      -0.266000
     14 C14         -0.6950     0.0550    -0.6020 ca         1 2RQ       0.236500
     15 N15          0.4350    -0.1240     0.0770 nb         1 2RQ      -0.169000
     16 C16         -1.8400    -0.7550    -0.1940 cc         1 2RQ      -0.267500
     17 C17         -1.9380    -2.1120     0.0350 cd         1 2RQ       0.352500
     18 N18         -3.2120    -2.4200     0.4090 nd         1 2RQ      -0.674000
     19 C19         -3.8690    -1.2900     0.4070 cc         1 2RQ       0.407400
     20 N20         -3.0980    -0.2490     0.0390 na         1 2RQ      -0.152500
     21 C21         -3.5200     1.1510     0.0580 c6         1 2RQ       0.079300
     22 C22         -3.9480     1.5890     1.4550 c6         1 2RQ      -0.129900
     23 C23         -4.3930     3.0510     1.4200 c6         1 2RQ       0.150300
     24 N24         -5.4280     3.3290     0.4400 n7         1 2RQ      -0.845400
     25 C25         -5.0450     2.8850    -0.8890 c6         1 2RQ       0.150300
     26 C26         -4.6260     1.4150    -0.9580 c6         1 2RQ      -0.129900
     27 C27         -0.9240    -3.1600    -0.1020 ca         1 2RQ      -0.116500
     28 C28          0.0760    -3.1060    -1.0750 ca         1 2RQ      -0.057000
     29 C29          1.0210    -4.1140    -1.1880 ca         1 2RQ      -0.157500
     30 C30          0.9510    -5.1880    -0.3230 ca         1 2RQ       0.173000
     31 C31         -0.0340    -5.2890     0.6400 ca         1 2RQ      -0.157500
     32 C32         -0.9690    -4.2710     0.7410 ca         1 2RQ      -0.057000
     33 F33          1.8650    -6.1670    -0.4260 f          1 2RQ      -0.183000
     34 H011         1.5770     4.2650     2.2640 h1         1 2RQ       0.042700
     35 H012         3.3170     4.2950     2.6040 h1         1 2RQ       0.042700
     36 H013         2.7040     4.8830     1.0420 h1         1 2RQ       0.042700
     37 H041         4.9420     4.1750     0.9260 ha         1 2RQ       0.119000
     38 H051         6.8740     3.2310    -0.2270 ha         1 2RQ       0.114000
     39 H061         6.8050     0.9230    -1.1340 ha         1 2RQ       0.121000
     40 H071         4.7380    -0.4310    -0.8600 ha         1 2RQ       0.131000
     41 H121         0.4260     2.3440    -2.7880 h4         1 2RQ       0.025100
     42 H131        -1.6610     1.0860    -2.2510 ha         1 2RQ       0.137000
     43 H191        -4.9090    -1.1750     0.6730 h5         1 2RQ       0.056100
     44 H211        -2.6460     1.7420    -0.2230 h1         1 2RQ       0.076700
     45 H222        -4.7770     0.9680     1.8080 hc         1 2RQ       0.058700
     46 H221        -3.1220     1.4600     2.1590 hc         1 2RQ       0.058700
     47 H231        -4.7490     3.3510     2.4060 h1         1 2RQ       0.058950
     48 H232        -3.5300     3.6870     1.1940 h1         1 2RQ       0.058950
     49 H241        -6.2820     2.8570     0.7150 hn         1 2RQ       0.409000
     50 H252        -5.8730     3.0650    -1.5770 h1         1 2RQ       0.058950
     51 H251        -4.2130     3.5100    -1.2320 h1         1 2RQ       0.058950
     52 H262        -4.2830     1.1680    -1.9670 hc         1 2RQ       0.058700
     53 H261        -5.4900     0.7770    -0.7470 hc         1 2RQ       0.058700
     54 H281         0.1140    -2.2820    -1.7740 ha         1 2RQ       0.121000
     55 H291         1.7900    -4.0670    -1.9470 ha         1 2RQ       0.129000
     56 H311        -0.0700    -6.1430     1.3020 ha         1 2RQ       0.129000
     57 H321        -1.7400    -4.3380     1.4960 ha         1 2RQ       0.121000
@<TRIPOS>BOND
     1     1     2 1   
     2     1    34 1   
     3     1    35 1   
     4     1    36 1   
     5     2     3 1   
     6     3     4 ar  
     7     3     8 ar  
     8     4     5 ar  
     9     4    37 1   
    10     5     6 ar  
    11     5    38 1   
    12     6     7 ar  
    13     6    39 1   
    14     7     8 ar  
    15     7    40 1   
    16     8     9 1   
    17     9    10 1   
    18    10    11 ar  
    19    10    15 ar  
    20    11    12 ar  
    21    12    13 ar  
    22    12    41 1   
    23    13    14 ar  
    24    13    42 1   
    25    14    15 ar  
    26    14    16 1   
    27    16    17 2   
    28    16    20 1   
    29    17    18 1   
    30    17    27 1   
    31    18    19 2   
    32    19    20 1   
    33    19    43 1   
    34    20    21 1   
    35    21    22 1   
    36    21    26 1   
    37    21    44 1   
    38    22    23 1   
    39    22    45 1   
    40    22    46 1   
    41    23    24 1   
    42    23    47 1   
    43    23    48 1   
    44    24    25 1   
    45    24    49 1   
    46    25    26 1   
    47    25    50 1   
    48    25    51 1   
    49    26    52 1   
    50    26    53 1   
    51    27    28 ar  
    52    27    32 ar  
    53    28    29 ar  
    54    28    54 1   
    55    29    30 ar  
    56    29    55 1   
    57    30    31 ar  
    58    30    33 1   
    59    31    32 ar  
    60    31    56 1   
    61    32    57 1   
@<TRIPOS>SUBSTRUCTURE
     1 2RQ         1 TEMP              0 ****  ****    0 ROOT
