@<TRIPOS>MOLECULE
2RR
   46    49     1     0     0
SMALL
No Charge or Current Charge


@<TRIPOS>ATOM
      1 C20         17.1840    63.5530    43.5510 c3         1 2RR      -0.024400
      2 C21         16.0310    64.1750    42.7380 c          1 2RR       0.575700
      3 O21         15.2910    65.0180    43.2370 o          1 2RR      -0.515100
      4 C25         15.3910    62.9350    38.6260 ca         1 2RR       0.361000
      5 C26         16.4030    62.3350    39.3810 ca         1 2RR      -0.212500
      6 C27         16.6230    62.7250    40.7130 ca         1 2RR      -0.004000
      7 C24         14.5910    63.9280    39.1980 ca         1 2RR      -0.212500
      8 C23         14.8010    64.3270    40.5290 ca         1 2RR      -0.004000
      9 C22         15.8210    63.7300    41.3050 ca         1 2RR      -0.241600
     10 C2          17.9050    65.3510    45.3330 cc         1 2RR       0.375800
     11 C4          17.2250    64.2820    47.0970 ca         1 2RR       0.079400
     12 N1          17.3540    64.1170    44.9160 na         1 2RR      -0.142600
     13 C9          16.9250    63.4680    46.0410 ca         1 2RR      -0.063200
     14 C5          16.9120    63.9030    48.4110 ca         1 2RR      -0.047000
     15 C8          16.2860    62.2270    46.2070 ca         1 2RR      -0.110000
     16 C6          16.2750    62.6600    48.6180 ca         1 2RR      -0.129000
     17 C7          15.9620    61.8260    47.5200 ca         1 2RR      -0.089000
     18 N3          17.8370    65.4580    46.6840 nd         1 2RR      -0.593100
     19 C18         17.5290    70.2780    47.4600 c1         1 2RR       0.292900
     20 C14         18.9900    67.5630    44.8340 cc         1 2RR       0.528900
     21 N13         19.4290    68.3010    43.8520 nd         1 2RR      -0.445300
     22 C10         18.4500    66.3270    44.4020 cc         1 2RR       0.212700
     23 N11         18.5300    66.2360    43.0870 nd         1 2RR      -0.312300
     24 N19         16.6120    70.1950    48.1730 n1         1 2RR      -0.454000
     25 O12         19.1480    67.4770    42.7170 os         1 2RR       0.082600
     26 C16         19.6680    69.2370    46.6510 c3         1 2RR       0.242800
     27 C17         18.6850    70.4220    46.5700 c3         1 2RR      -0.053300
     28 H1          17.0020    62.4750    43.6090 h1         1 2RR       0.087700
     29 H2          18.1120    63.6870    42.9860 h1         1 2RR       0.087700
     30 H3          17.0270    61.5630    38.9390 ha         1 2RR       0.116500
     31 H4          17.4190    62.2340    41.2680 ha         1 2RR       0.120000
     32 H5          13.8040    64.3980    38.6150 ha         1 2RR       0.116500
     33 H6          14.1650    65.1030    40.9510 ha         1 2RR       0.120000
     34 H7          15.6340    61.7040    36.9900 hn         1 2RR       0.478500
     35 H8          14.3340    62.8460    36.8560 hn         1 2RR       0.478500
     36 H9          17.1530    64.5540    49.2470 ha         1 2RR       0.130000
     37 H10         16.0420    61.5860    45.3640 ha         1 2RR       0.119000
     38 H11         16.0210    62.3450    49.6280 ha         1 2RR       0.117000
     39 H12         15.4680    60.8710    47.6880 ha         1 2RR       0.115000
     40 H13         18.7040    67.3010    46.8210 hn         1 2RR       0.542000
     41 H14         20.5650    69.4820    46.0650 h1         1 2RR       0.067200
     42 H15         19.9930    69.1060    47.6930 h1         1 2RR       0.067200
     43 H16         19.2140    71.3420    46.8390 hc         1 2RR       0.085200
     44 H17         18.3320    70.5440    45.5400 hc         1 2RR       0.085200
     45 N28         15.1830    62.5500    37.3340 nv         1 2RR      -1.108000
     46 N15         19.0610    67.9900    46.1460 nu         1 2RR      -0.925100
@<TRIPOS>BOND
     1     1     2 1   
     2     1    12 1   
     3     1    28 1   
     4     1    29 1   
     5     2     3 2   
     6     2     9 1   
     7     4     5 ar  
     8     4     7 ar  
     9     4    45 1   
    10     5     6 ar  
    11     5    30 1   
    12     6     9 ar  
    13     6    31 1   
    14     7     8 ar  
    15     7    32 1   
    16     8     9 ar  
    17     8    33 1   
    18    10    12 1   
    19    10    18 2   
    20    10    22 1   
    21    11    13 ar  
    22    11    14 ar  
    23    11    18 1   
    24    12    13 1   
    25    13    15 ar  
    26    14    16 ar  
    27    14    36 1   
    28    15    17 ar  
    29    15    37 1   
    30    16    17 ar  
    31    16    38 1   
    32    17    39 1   
    33    19    24 3   
    34    19    27 1   
    35    20    21 2   
    36    20    22 1   
    37    20    46 1   
    38    21    25 1   
    39    22    23 2   
    40    23    25 1   
    41    26    27 1   
    42    26    41 1   
    43    26    42 1   
    44    26    46 1   
    45    27    43 1   
    46    27    44 1   
    47    34    45 1   
    48    35    45 1   
    49    40    46 1   
@<TRIPOS>SUBSTRUCTURE
     1 2RR         1 TEMP              0 ****  ****    0 ROOT
