@<TRIPOS>MOLECULE
2RR
   46    49     1     0     0
SMALL
abcg2


@<TRIPOS>ATOM
      1 C20         17.2910    63.5780    43.5260 c3         1 2RR      -0.024400
      2 C21         16.0630    64.1450    42.8010 c          1 2RR       0.575700
      3 O21         15.3100    64.9020    43.3990 o          1 2RR      -0.515100
      4 C25         15.3810    63.0160    38.7230 ca         1 2RR       0.361000
      5 C26         16.4960    62.5120    39.4210 ca         1 2RR      -0.212500
      6 C27         16.7220    62.8700    40.7330 ca         1 2RR      -0.004000
      7 C24         14.5040    63.8910    39.4010 ca         1 2RR      -0.212500
      8 C23         14.7420    64.2400    40.7090 ca         1 2RR      -0.004000
      9 C22         15.8550    63.7430    41.4110 ca         1 2RR      -0.241600
     10 C2          17.8950    65.2720    45.3080 cc         1 2RR       0.375800
     11 C4          17.1680    64.2970    47.0840 ca         1 2RR       0.079400
     12 N1          17.3960    64.0660    44.8810 na         1 2RR      -0.142600
     13 C9          16.9010    63.4300    46.0020 ca         1 2RR      -0.063200
     14 C5          16.7990    63.9370    48.3830 ca         1 2RR      -0.047000
     15 C8          16.2580    62.2060    46.1720 ca         1 2RR      -0.110000
     16 C6          16.1630    62.7200    48.5560 ca         1 2RR      -0.129000
     17 C7          15.8950    61.8690    47.4670 ca         1 2RR      -0.089000
     18 N3          17.7900    65.4360    46.6170 nd         1 2RR      -0.593100
     19 C18         17.4640    70.1060    47.1380 c1         1 2RR       0.292900
     20 C14         19.0690    67.5290    44.9300 cc         1 2RR       0.528900
     21 N13         19.4520    68.2240    43.8860 nd         1 2RR      -0.445300
     22 C10         18.4710    66.2940    44.4650 cc         1 2RR       0.212700
     23 N11         18.5190    66.2790    43.1640 nd         1 2RR      -0.312300
     24 N19         16.5040    69.9020    47.7390 n1         1 2RR      -0.454000
     25 O12         19.1140    67.4380    42.7790 os         1 2RR       0.082600
     26 C16         19.7140    69.1980    46.6020 c3         1 2RR       0.242800
     27 C17         18.6880    70.3290    46.3820 c3         1 2RR      -0.053300
     28 H1          17.2280    62.4910    43.5590 h1         1 2RR       0.087700
     29 H2          18.1940    63.8340    42.9760 h1         1 2RR       0.087700
     30 H3          17.1750    61.8370    38.9140 ha         1 2RR       0.116500
     31 H4          17.5890    62.4590    41.2320 ha         1 2RR       0.120000
     32 H5          13.6410    64.2820    38.8760 ha         1 2RR       0.116500
     33 H6          14.0630    64.9100    41.2190 ha         1 2RR       0.120000
     34 H7          15.6820    61.9290    37.0120 hn         1 2RR       0.478500
     35 H8          14.2790    62.9040    36.9990 hn         1 2RR       0.478500
     36 H9          17.0030    64.5950    49.2180 ha         1 2RR       0.130000
     37 H10         16.0440    61.5490    45.3400 ha         1 2RR       0.119000
     38 H11         15.8610    62.4120    49.5490 ha         1 2RR       0.117000
     39 H12         15.3900    60.9280    47.6450 ha         1 2RR       0.115000
     40 H13         18.7670    67.2950    46.8900 hn         1 2RR       0.542000
     41 H14         20.6070    69.4440    46.0250 h1         1 2RR       0.067200
     42 H15         19.9920    69.1510    47.6530 h1         1 2RR       0.067200
     43 H16         19.1220    71.2830    46.6900 hc         1 2RR       0.085200
     44 H17         18.4300    70.4080    45.3250 hc         1 2RR       0.085200
     45 N28         15.1720    62.6990    37.4160 nv         1 2RR      -1.108000
     46 N15         19.2280    67.8940    46.2150 nu         1 2RR      -0.925100
@<TRIPOS>BOND
     1     1     2 1   
     2     1    12 1   
     3     1    28 1   
     4     1    29 1   
     5     2     3 2   
     6     2     9 1   
     7     4     5 ar  
     8     4     7 ar  
     9     4    45 1   
    10     5     6 ar  
    11     5    30 1   
    12     6     9 ar  
    13     6    31 1   
    14     7     8 ar  
    15     7    32 1   
    16     8     9 ar  
    17     8    33 1   
    18    10    12 1   
    19    10    18 2   
    20    10    22 1   
    21    11    13 ar  
    22    11    14 ar  
    23    11    18 1   
    24    12    13 1   
    25    13    15 ar  
    26    14    16 ar  
    27    14    36 1   
    28    15    17 ar  
    29    15    37 1   
    30    16    17 ar  
    31    16    38 1   
    32    17    39 1   
    33    19    24 3   
    34    19    27 1   
    35    20    21 2   
    36    20    22 1   
    37    20    46 1   
    38    21    25 1   
    39    22    23 2   
    40    23    25 1   
    41    26    27 1   
    42    26    41 1   
    43    26    42 1   
    44    26    46 1   
    45    27    43 1   
    46    27    44 1   
    47    34    45 1   
    48    35    45 1   
    49    40    46 1   
@<TRIPOS>SUBSTRUCTURE
     1 2RR         1 TEMP              0 ****  ****    0 ROOT
