@<TRIPOS>MOLECULE
2RS
   66    69     1     0     0
SMALL
No Charge or Current Charge


@<TRIPOS>ATOM
      1 CAQ          5.8290    -3.5820     0.7080 c6         1 2RS       0.125800
      2 CAN          6.4500    -4.9890     0.9540 c6         1 2RS       0.153100
      3 OAX          6.1490    -5.8710    -0.1540 os         1 2RS      -0.449000
      4 CAO          4.7260    -6.0250    -0.3700 c6         1 2RS       0.153100
      5 CAR          4.0630    -4.6400    -0.6400 c6         1 2RS       0.125800
      6 NBI          4.3550    -3.6570     0.4560 n3         1 2RS      -0.716600
      7 CAP          3.7540    -2.3170     0.2450 c3         1 2RS       0.172800
      8 CAL          2.2110    -2.3020     0.2080 c3         1 2RS      -0.088400
      9 CAM          1.6410    -0.8740     0.1500 c3         1 2RS       0.176600
     10 OAY          0.2050    -0.9770     0.1120 os         1 2RS      -0.434300
     11 CBD          0.9110     4.2410    -0.0530 ca         1 2RS       0.347000
     12 CAH          1.9890     3.5990    -0.6910 ca         1 2RS      -0.163500
     13 CAF          3.2580     4.2030    -0.7320 ca         1 2RS      -0.040500
     14 CBA          3.4590     5.4640    -0.1410 ca         1 2RS      -0.057000
     15 CAE          4.7550     6.0850    -0.1820 cg         1 2RS       0.330000
     16 NAD          5.8030     6.5970    -0.2170 n1         1 2RS      -0.460000
     17 CAG          2.3800     6.1170     0.4840 ca         1 2RS      -0.040500
     18 CAI          1.1130     5.5070     0.5210 ca         1 2RS      -0.163500
     19 NAS         -2.1990     2.3090    -0.0600 nb         1 2RS      -0.372000
     20 CBF         -2.6610     1.0560    -0.0580 ca         1 2RS       0.455900
     21 CBG         -0.5900     0.1450     0.0510 ca         1 2RS       0.434300
     22 NAU         -1.9190    -0.0580     0.0080 nb         1 2RS      -0.300000
     23 NAT         -0.0170     1.3670     0.0410 nb         1 2RS      -0.381000
     24 CBE         -0.8680     2.3970    -0.0250 ca         1 2RS       0.460900
     25 CBH         -4.8960    -0.1730    -0.0820 ca         1 2RS       0.272000
     26 CBB         -5.8530    -0.3120     0.9560 ca         1 2RS      -0.055300
     27 CAB         -5.9520     0.7120     2.0880 c3         1 2RS      -0.048300
     28 CAJ         -6.7230    -1.4190     0.9650 ca         1 2RS      -0.110500
     29 CAZ         -6.6590    -2.3900    -0.0470 ca         1 2RS      -0.062300
     30 CAA         -7.6050    -3.5810    -0.0270 c3         1 2RS      -0.046800
     31 CAK         -5.7290    -2.2420    -1.0870 ca         1 2RS      -0.110500
     32 CBC         -4.8500    -1.1420    -1.1230 ca         1 2RS      -0.055300
     33 CAC         -3.9060    -1.0220    -2.3210 c3         1 2RS      -0.048300
     34 H1           6.0340    -2.9500     1.5850 h1         1 2RS       0.041450
     35 H2           6.3390    -3.1180    -0.1490 h1         1 2RS       0.041450
     36 H3           7.5410    -4.9030     1.0600 h1         1 2RS       0.051450
     37 H4           6.0490    -5.4210     1.8820 h1         1 2RS       0.051450
     38 H5           4.5620    -6.6920    -1.2270 h1         1 2RS       0.051450
     39 H6           4.2730    -6.4910     0.5180 h1         1 2RS       0.051450
     40 H7           4.4290    -4.2570    -1.6040 h1         1 2RS       0.041450
     41 H8           2.9800    -4.7990    -0.7440 h1         1 2RS       0.041450
     42 H10          4.0710    -1.6540     1.0610 h1         1 2RS       0.031700
     43 H11          4.1330    -1.8790    -0.6880 h1         1 2RS       0.031700
     44 H12          1.8530    -2.8570    -0.6660 hc         1 2RS       0.065700
     45 H13          1.8250    -2.8070     1.1020 hc         1 2RS       0.065700
     46 H14          1.9690    -0.3110     1.0340 h1         1 2RS       0.049700
     47 H15          2.0190    -0.3650    -0.7470 h1         1 2RS       0.049700
     48 H16         -1.1060     4.3630     0.1720 hn         1 2RS       0.514000
     49 H17          1.8500     2.6380    -1.1750 ha         1 2RS       0.136000
     50 H18          4.0810     3.6920    -1.2290 ha         1 2RS       0.124500
     51 H19          2.5200     7.0960     0.9410 ha         1 2RS       0.124500
     52 H20          0.2890     6.0210     1.0080 ha         1 2RS       0.136000
     53 H21         -4.4860     1.8090     0.2030 hn         1 2RS       0.517000
     54 H22         -6.2620     1.6920     1.7070 hc         1 2RS       0.045700
     55 H23         -6.6830     0.4110     2.8480 hc         1 2RS       0.045700
     56 H24         -4.9880     0.8340     2.5960 hc         1 2RS       0.045700
     57 H25         -7.4520    -1.5290     1.7650 ha         1 2RS       0.113500
     58 H26         -8.5320    -3.3520    -0.5650 hc         1 2RS       0.043700
     59 H27         -7.1510    -4.4600    -0.5000 hc         1 2RS       0.043700
     60 H28         -7.8730    -3.8620     0.9980 hc         1 2RS       0.043700
     61 H29         -5.6940    -2.9850    -1.8820 ha         1 2RS       0.113500
     62 H30         -2.9530    -1.5240    -2.1230 hc         1 2RS       0.045700
     63 H31         -4.3390    -1.4870    -3.2150 hc         1 2RS       0.045700
     64 H32         -3.6960     0.0220    -2.5790 hc         1 2RS       0.045700
     65 NAW         -4.0350     0.9380    -0.0700 nu         1 2RS      -0.933900
     66 NAV         -0.3690     3.6820     0.0000 nu         1 2RS      -0.924900
@<TRIPOS>BOND
     1     1     2 1   
     2     1     6 1   
     3     1    34 1   
     4     1    35 1   
     5     2     3 1   
     6     2    36 1   
     7     2    37 1   
     8     3     4 1   
     9     4     5 1   
    10     4    38 1   
    11     4    39 1   
    12     5     6 1   
    13     5    40 1   
    14     5    41 1   
    15     6     7 1   
    16     7     8 1   
    17     7    42 1   
    18     7    43 1   
    19     8     9 1   
    20     8    44 1   
    21     8    45 1   
    22     9    10 1   
    23     9    46 1   
    24     9    47 1   
    25    10    21 1   
    26    11    12 ar  
    27    11    18 ar  
    28    11    66 1   
    29    12    13 ar  
    30    12    49 1   
    31    13    14 ar  
    32    13    50 1   
    33    14    15 1   
    34    14    17 ar  
    35    15    16 3   
    36    17    18 ar  
    37    17    51 1   
    38    18    52 1   
    39    19    20 ar  
    40    19    24 ar  
    41    20    22 ar  
    42    20    65 1   
    43    21    22 ar  
    44    21    23 ar  
    45    23    24 ar  
    46    24    66 1   
    47    25    26 ar  
    48    25    32 ar  
    49    25    65 1   
    50    26    27 1   
    51    26    28 ar  
    52    27    54 1   
    53    27    55 1   
    54    27    56 1   
    55    28    29 ar  
    56    28    57 1   
    57    29    30 1   
    58    29    31 ar  
    59    30    58 1   
    60    30    59 1   
    61    30    60 1   
    62    31    32 ar  
    63    31    61 1   
    64    32    33 1   
    65    33    62 1   
    66    33    63 1   
    67    33    64 1   
    68    48    66 1   
    69    53    65 1   
@<TRIPOS>SUBSTRUCTURE
     1 2RS         1 TEMP              0 ****  ****    0 ROOT
