@<TRIPOS>MOLECULE
2RS
   66    69     1     0     0
SMALL
abcg2


@<TRIPOS>ATOM
      1 CAQ          5.5220    -3.4270     0.6460 c6         1 2RS       0.125800
      2 CAN          6.0800    -4.7960     0.9850 c6         1 2RS       0.153100
      3 OAX          5.8500    -5.7200    -0.0560 os         1 2RS      -0.449000
      4 CAO          4.4720    -5.8180    -0.3410 c6         1 2RS       0.153100
      5 CAR          3.8730    -4.4710    -0.6990 c6         1 2RS       0.125800
      6 NBI          4.0980    -3.5240     0.3780 n3         1 2RS      -0.716600
      7 CAP          3.5140    -2.2220     0.1220 c3         1 2RS       0.172800
      8 CAL          1.9900    -2.2400     0.1630 c3         1 2RS      -0.088400
      9 CAM          1.4470    -0.8300     0.0630 c3         1 2RS       0.176600
     10 OAY          0.0180    -0.9190     0.0470 os         1 2RS      -0.434300
     11 CBD          0.9570     4.1080    -0.0750 ca         1 2RS       0.347000
     12 CAH          2.0890     3.2880    -0.0010 ca         1 2RS      -0.163500
     13 CAF          3.3460     3.8540     0.0880 ca         1 2RS      -0.040500
     14 CBA          3.5090     5.2380     0.1040 ca         1 2RS      -0.057000
     15 CAE          4.8100     5.8070     0.2000 cg         1 2RS       0.330000
     16 NAD          5.8630     6.2700     0.2790 n1         1 2RS      -0.460000
     17 CAG          2.3830     6.0600     0.0260 ca         1 2RS      -0.040500
     18 CAI          1.1290     5.5000    -0.0620 ca         1 2RS      -0.163500
     19 NAS         -2.1940     2.3530    -0.2090 nb         1 2RS      -0.372000
     20 CBF         -2.7080     1.1210    -0.1700 ca         1 2RS       0.455900
     21 CBG         -0.6920     0.1880    -0.0340 ca         1 2RS       0.434300
     22 NAU         -1.9960    -0.0030    -0.0700 nb         1 2RS      -0.300000
     23 NAT         -0.0630     1.3510    -0.0670 nb         1 2RS      -0.381000
     24 CBE         -0.8720     2.4020    -0.1450 ca         1 2RS       0.460900
     25 CBH         -4.7790    -0.1810    -0.1460 ca         1 2RS       0.272000
     26 CBB         -5.4910    -0.4440     1.0270 ca         1 2RS      -0.055300
     27 CAB         -5.4470     0.5160     2.1800 c3         1 2RS      -0.048300
     28 CAJ         -6.2370    -1.6140     1.1050 ca         1 2RS      -0.110500
     29 CAZ         -6.2820    -2.5220     0.0520 ca         1 2RS      -0.062300
     30 CAA         -7.1150    -3.7680     0.1460 c3         1 2RS      -0.046800
     31 CAK         -5.5610    -2.2310    -1.1000 ca         1 2RS      -0.110500
     32 CBC         -4.8110    -1.0660    -1.2250 ca         1 2RS      -0.055300
     33 CAC         -4.0580    -0.7860    -2.4910 c3         1 2RS      -0.048300
     34 H1           5.6850    -2.7580     1.4950 h1         1 2RS       0.041450
     35 H2           6.0750    -3.0050    -0.2110 h1         1 2RS       0.041450
     36 H3           7.1590    -4.7360     1.1370 h1         1 2RS       0.051450
     37 H4           5.6260    -5.1500     1.9210 h1         1 2RS       0.051450
     38 H5           4.3600    -6.5110    -1.1760 h1         1 2RS       0.051450
     39 H6           3.9300    -6.2350     0.5200 h1         1 2RS       0.051450
     40 H7           4.3010    -4.1130    -1.6520 h1         1 2RS       0.041450
     41 H8           2.8020    -4.6100    -0.8620 h1         1 2RS       0.041450
     42 H10          3.8780    -1.5420     0.8980 h1         1 2RS       0.031700
     43 H11          3.8550    -1.8030    -0.8400 h1         1 2RS       0.031700
     44 H12          1.5860    -2.8370    -0.6580 hc         1 2RS       0.065700
     45 H13          1.6640    -2.7000     1.0990 hc         1 2RS       0.065700
     46 H14          1.7740    -0.2260     0.9140 h1         1 2RS       0.049700
     47 H15          1.7970    -0.3400    -0.8500 h1         1 2RS       0.049700
     48 H16         -1.0520     4.3770    -0.2190 hn         1 2RS       0.514000
     49 H17          1.9890     2.2160    -0.0110 ha         1 2RS       0.136000
     50 H18          4.2100     3.2060     0.1470 ha         1 2RS       0.124500
     51 H19          2.4900     7.1360     0.0360 ha         1 2RS       0.124500
     52 H20          0.2650     6.1500    -0.1200 ha         1 2RS       0.136000
     53 H21         -4.5490     1.9010    -0.2160 hn         1 2RS       0.517000
     54 H22         -5.8710     1.4870     1.9150 hc         1 2RS       0.045700
     55 H23         -6.0120     0.1330     3.0280 hc         1 2RS       0.045700
     56 H24         -4.4240     0.6970     2.5140 hc         1 2RS       0.045700
     57 H25         -6.7900    -1.8250     2.0140 ha         1 2RS       0.113500
     58 H26         -8.1280    -3.5880    -0.2190 hc         1 2RS       0.043700
     59 H27         -6.6950    -4.5770    -0.4510 hc         1 2RS       0.043700
     60 H28         -7.2000    -4.1150     1.1750 hc         1 2RS       0.043700
     61 H29         -5.5870    -2.9260    -1.9320 ha         1 2RS       0.113500
     62 H30         -2.9920    -0.9810    -2.3640 hc         1 2RS       0.045700
     63 H31         -4.4170    -1.4170    -3.3030 hc         1 2RS       0.045700
     64 H32         -4.1600     0.2540    -2.8020 hc         1 2RS       0.045700
     65 NAW         -4.0450     1.0270    -0.2340 nu         1 2RS      -0.933900
     66 NAV         -0.3470     3.6570    -0.1620 nu         1 2RS      -0.924900
@<TRIPOS>BOND
     1     1     2 1   
     2     1     6 1   
     3     1    34 1   
     4     1    35 1   
     5     2     3 1   
     6     2    36 1   
     7     2    37 1   
     8     3     4 1   
     9     4     5 1   
    10     4    38 1   
    11     4    39 1   
    12     5     6 1   
    13     5    40 1   
    14     5    41 1   
    15     6     7 1   
    16     7     8 1   
    17     7    42 1   
    18     7    43 1   
    19     8     9 1   
    20     8    44 1   
    21     8    45 1   
    22     9    10 1   
    23     9    46 1   
    24     9    47 1   
    25    10    21 1   
    26    11    12 ar  
    27    11    18 ar  
    28    11    66 1   
    29    12    13 ar  
    30    12    49 1   
    31    13    14 ar  
    32    13    50 1   
    33    14    15 1   
    34    14    17 ar  
    35    15    16 3   
    36    17    18 ar  
    37    17    51 1   
    38    18    52 1   
    39    19    20 ar  
    40    19    24 ar  
    41    20    22 ar  
    42    20    65 1   
    43    21    22 ar  
    44    21    23 ar  
    45    23    24 ar  
    46    24    66 1   
    47    25    26 ar  
    48    25    32 ar  
    49    25    65 1   
    50    26    27 1   
    51    26    28 ar  
    52    27    54 1   
    53    27    55 1   
    54    27    56 1   
    55    28    29 ar  
    56    28    57 1   
    57    29    30 1   
    58    29    31 ar  
    59    30    58 1   
    60    30    59 1   
    61    30    60 1   
    62    31    32 ar  
    63    31    61 1   
    64    32    33 1   
    65    33    62 1   
    66    33    63 1   
    67    33    64 1   
    68    48    66 1   
    69    53    65 1   
@<TRIPOS>SUBSTRUCTURE
     1 2RS         1 TEMP              0 ****  ****    0 ROOT
