@<TRIPOS>MOLECULE
2RT
   43    45     1     0     0
SMALL
No Charge or Current Charge


@<TRIPOS>ATOM
      1 NAV          2.3250    -0.8430     0.3000 nu         1 2RT      -0.923900
      2 CBD          3.6980    -0.5940     0.2180 ca         1 2RT       0.344000
      3 CAH          4.5730    -1.6890     0.1240 ca         1 2RT      -0.161500
      4 CAF          5.9640    -1.4930     0.0520 ca         1 2RT      -0.041000
      5 CBA          6.4940    -0.1890     0.0830 ca         1 2RT      -0.057000
      6 CAE          7.9150     0.0160     0.0110 cg         1 2RT       0.331000
      7 NAD          9.0700     0.1760    -0.0410 n1         1 2RT      -0.461000
      8 CAG          5.6240     0.9110     0.1940 ca         1 2RT      -0.041000
      9 CAI          4.2340     0.7070     0.2650 ca         1 2RT      -0.161500
     10 NAS          0.0360    -0.7140     0.3420 nb         1 2RT      -0.355000
     11 CBF         -1.0640    -0.0240     0.0130 ca         1 2RT       0.433900
     12 CBG          0.1240     1.6350    -0.9660 ca         1 2RT       0.201900
     13 NAU         -1.0910     1.1450    -0.6490 nb         1 2RT      -0.281000
     14 NAT          1.2980     1.0390    -0.6750 nb         1 2RT      -0.301000
     15 CBE          1.1860    -0.1260    -0.0130 ca         1 2RT       0.431900
     16 CBH         -3.6010    -0.2360     0.1900 ca         1 2RT       0.271000
     17 CBB         -4.4820    -1.0800    -0.5340 ca         1 2RT      -0.055300
     18 CAB         -3.9970    -2.3910    -1.1540 c3         1 2RT      -0.047800
     19 CAJ         -5.8290    -0.7060    -0.7060 ca         1 2RT      -0.111500
     20 CAZ         -6.3150     0.4940    -0.1640 ca         1 2RT      -0.061300
     21 CAA         -7.7720     0.8870    -0.3560 c3         1 2RT      -0.047800
     22 CAK         -5.4510     1.3190     0.5720 ca         1 2RT      -0.111500
     23 CBC         -4.1010     0.9660     0.7640 ca         1 2RT      -0.055300
     24 CAC         -3.2390     1.8890     1.6280 c3         1 2RT      -0.047800
     25 H1           2.1000    -1.7930     0.5900 hn         1 2RT       0.512000
     26 H2           4.1770    -2.7000     0.0980 ha         1 2RT       0.138000
     27 H3           6.6270    -2.3530    -0.0280 ha         1 2RT       0.125500
     28 H4           6.0210     1.9240     0.2310 ha         1 2RT       0.125500
     29 H5           3.5830     1.5670     0.3750 ha         1 2RT       0.138000
     30 H6           0.1600     2.5820    -1.5020 h5         1 2RT       0.051100
     31 H7          -2.1380    -1.6200     0.5350 hn         1 2RT       0.516000
     32 H8          -3.6830    -3.1020    -0.3800 hc         1 2RT       0.045867
     33 H9          -4.7810    -2.8780    -1.7460 hc         1 2RT       0.045867
     34 H10         -3.1450    -2.2200    -1.8230 hc         1 2RT       0.045867
     35 H11         -6.5020    -1.3500    -1.2670 ha         1 2RT       0.114500
     36 H12         -8.3930     0.4900     0.4550 hc         1 2RT       0.044033
     37 H13         -7.8940     1.9760    -0.3690 hc         1 2RT       0.044033
     38 H14         -8.1700     0.5010    -1.3020 hc         1 2RT       0.044033
     39 H15         -5.8340     2.2390     1.0080 ha         1 2RT       0.114500
     40 H16         -2.7440     2.6520     1.0170 hc         1 2RT       0.045867
     41 H17         -3.8450     2.4120     2.3760 hc         1 2RT       0.045867
     42 H18         -2.4670     1.3380     2.1770 hc         1 2RT       0.045867
     43 NAW         -2.2600    -0.6270     0.3470 nu         1 2RT      -0.935900
@<TRIPOS>BOND
     1     1     2 1   
     2     1    15 1   
     3     1    25 1   
     4     2     3 ar  
     5     2     9 ar  
     6     3     4 ar  
     7     3    26 1   
     8     4     5 ar  
     9     4    27 1   
    10     5     6 1   
    11     5     8 ar  
    12     6     7 3   
    13     8     9 ar  
    14     8    28 1   
    15     9    29 1   
    16    10    11 ar  
    17    10    15 ar  
    18    11    13 ar  
    19    11    43 1   
    20    12    13 ar  
    21    12    14 ar  
    22    12    30 1   
    23    14    15 ar  
    24    16    17 ar  
    25    16    23 ar  
    26    16    43 1   
    27    17    18 1   
    28    17    19 ar  
    29    18    32 1   
    30    18    33 1   
    31    18    34 1   
    32    19    20 ar  
    33    19    35 1   
    34    20    21 1   
    35    20    22 ar  
    36    21    36 1   
    37    21    37 1   
    38    21    38 1   
    39    22    23 ar  
    40    22    39 1   
    41    23    24 1   
    42    24    40 1   
    43    24    41 1   
    44    24    42 1   
    45    31    43 1   
@<TRIPOS>SUBSTRUCTURE
     1 2RT         1 TEMP              0 ****  ****    0 ROOT
