@<TRIPOS>MOLECULE
2RT
   43    45     1     0     0
SMALL
bcc


@<TRIPOS>ATOM
      1 NAV          2.2580    -0.8370     0.4960 nu         1 2RT      -0.730300
      2 CBD          3.5860    -0.5440     0.2490 ca         1 2RT       0.205600
      3 CAH          4.5190    -1.4930     0.6910 ca         1 2RT      -0.179500
      4 CAF          5.8690    -1.3030     0.5030 ca         1 2RT      -0.059000
      5 CBA          6.3270    -0.1490    -0.1360 ca         1 2RT      -0.057000
      6 CAE          7.7210     0.0580    -0.3340 cg         1 2RT       0.241800
      7 NAD          8.8510     0.2310    -0.4830 n1         1 2RT      -0.371800
      8 CAG          5.4050     0.8000    -0.5760 ca         1 2RT      -0.059000
      9 CAI          4.0490     0.6130    -0.3900 ca         1 2RT      -0.179500
     10 NAS         -0.0000    -0.7990     0.5570 nb         1 2RT      -0.881000
     11 CBF         -1.1350    -0.1930     0.2110 ca         1 2RT       0.959900
     12 CBG         -0.0340     1.4380    -0.8370 ca         1 2RT       0.727900
     13 NAU         -1.2040     0.9440    -0.5000 nb         1 2RT      -0.807000
     14 NAT          1.1570     0.9330    -0.5560 nb         1 2RT      -0.827000
     15 CBE          1.1090    -0.1990     0.1470 ca         1 2RT       0.957900
     16 CBH         -3.5750    -0.2890     0.2990 ca         1 2RT       0.132600
     17 CBB         -4.3280    -0.9560    -0.6710 ca         1 2RT      -0.055300
     18 CAB         -3.7590    -2.1360    -1.4010 c3         1 2RT      -0.047800
     19 CAJ         -5.6120    -0.5010    -0.9440 ca         1 2RT      -0.129500
     20 CAZ         -6.1520     0.5990    -0.2840 ca         1 2RT      -0.061300
     21 CAA         -7.5510     1.0590    -0.5790 c3         1 2RT      -0.047800
     22 CAK         -5.3750     1.2410     0.6730 ca         1 2RT      -0.129500
     23 CBC         -4.0890     0.8120     0.9860 ca         1 2RT      -0.055300
     24 CAC         -3.2830     1.5300     2.0260 c3         1 2RT      -0.047800
     25 H1           2.0920    -1.6910     1.0100 hn         1 2RT       0.456800
     26 H2           4.1760    -2.3940     1.1850 ha         1 2RT       0.156000
     27 H3           6.5700    -2.0500     0.8500 ha         1 2RT       0.143500
     28 H4           5.7490     1.6990    -1.0700 ha         1 2RT       0.143500
     29 H5           3.3570     1.3600    -0.7390 ha         1 2RT       0.156000
     30 H6          -0.0410     2.3600    -1.4110 h5         1 2RT       0.051100
     31 H7          -2.1880    -1.6630     1.0700 hn         1 2RT       0.460800
     32 H8          -3.5940    -2.9840    -0.7330 hc         1 2RT       0.045867
     33 H9          -4.4320    -2.4690    -2.1910 hc         1 2RT       0.045867
     34 H10         -2.7970    -1.9010    -1.8590 hc         1 2RT       0.045867
     35 H11         -6.2030    -1.0120    -1.6960 ha         1 2RT       0.132500
     36 H12         -8.2800     0.4850    -0.0030 hc         1 2RT       0.044033
     37 H13         -7.6890     2.1080    -0.3230 hc         1 2RT       0.044033
     38 H14         -7.8000     0.9310    -1.6320 hc         1 2RT       0.044033
     39 H15         -5.7820     2.0990     1.2000 ha         1 2RT       0.132500
     40 H16         -2.5340     2.1760     1.5620 hc         1 2RT       0.045867
     41 H17         -3.9200     2.1560     2.6480 hc         1 2RT       0.045867
     42 H18         -2.7490     0.8370     2.6760 hc         1 2RT       0.045867
     43 NAW         -2.2780    -0.7720     0.6020 nu         1 2RT      -0.742300
@<TRIPOS>BOND
     1     1     2 1   
     2     1    15 1   
     3     1    25 1   
     4     2     3 ar  
     5     2     9 ar  
     6     3     4 ar  
     7     3    26 1   
     8     4     5 ar  
     9     4    27 1   
    10     5     6 1   
    11     5     8 ar  
    12     6     7 3   
    13     8     9 ar  
    14     8    28 1   
    15     9    29 1   
    16    10    11 ar  
    17    10    15 ar  
    18    11    13 ar  
    19    11    43 1   
    20    12    13 ar  
    21    12    14 ar  
    22    12    30 1   
    23    14    15 ar  
    24    16    17 ar  
    25    16    23 ar  
    26    16    43 1   
    27    17    18 1   
    28    17    19 ar  
    29    18    32 1   
    30    18    33 1   
    31    18    34 1   
    32    19    20 ar  
    33    19    35 1   
    34    20    21 1   
    35    20    22 ar  
    36    21    36 1   
    37    21    37 1   
    38    21    38 1   
    39    22    23 ar  
    40    22    39 1   
    41    23    24 1   
    42    24    40 1   
    43    24    41 1   
    44    24    42 1   
    45    31    43 1   
@<TRIPOS>SUBSTRUCTURE
     1 2RT         1 TEMP              0 ****  ****    0 ROOT
