@<TRIPOS>MOLECULE
2RU
   47    48     1     0     0
SMALL
bcc


@<TRIPOS>ATOM
      1 F23         -7.5000     0.7540     0.1270 f          1 2RU      -0.237300
      2 C20         -6.8080    -0.1990    -0.5210 c3         1 2RU       0.726200
      3 F21         -7.1390    -1.3620     0.0540 f          1 2RU      -0.237300
      4 F22         -7.2890    -0.2290    -1.7710 f          1 2RU      -0.237300
      5 C19         -5.3390     0.0540    -0.4860 ca         1 2RU      -0.236300
      6 C18         -4.7300     0.8230    -1.4720 ca         1 2RU      -0.045000
      7 C17         -3.3790     1.0920    -1.4080 ca         1 2RU      -0.187500
      8 C24         -4.5650    -0.4260     0.5630 ca         1 2RU      -0.045000
      9 C25         -3.2080    -0.1610     0.6370 ca         1 2RU      -0.187500
     10 C1          -2.5910     0.6070    -0.3560 ca         1 2RU       0.126600
     11 N2          -1.2460     0.9370    -0.3870 ns         1 2RU      -0.489100
     12 C3          -0.2380     0.5320     0.4600 c          1 2RU       0.796100
     13 O16         -0.4210    -0.1900     1.4270 o          1 2RU      -0.616100
     14 N4           0.9740     1.0360     0.1240 ns         1 2RU      -0.580900
     15 C5           2.1970     0.6100     0.7700 c6         1 2RU       0.121700
     16 C15          3.2300     1.7310     0.7180 c6         1 2RU      -0.119900
     17 C14          4.5530     1.2740     1.3210 c6         1 2RU       0.097500
     18 N8           5.0340     0.0730     0.6600 n          1 2RU      -0.477800
     19 C7           4.1000    -1.0340     0.7770 c6         1 2RU       0.097500
     20 C6           2.7600    -0.6680     0.1480 c6         1 2RU      -0.119900
     21 C9           6.1060     0.1250    -0.1650 c          1 2RU       0.672100
     22 O13          6.7600     1.1530    -0.3030 o          1 2RU      -0.603100
     23 C10          6.5260    -1.1540    -0.8780 c3         1 2RU      -0.135700
     24 C12          7.3830    -0.8440    -2.0990 c3         1 2RU      -0.082600
     25 C11          7.2880    -2.0570     0.0980 c3         1 2RU      -0.082600
     26 H1          -5.2960     1.2190    -2.3040 ha         1 2RU       0.147500
     27 H2          -2.9220     1.6860    -2.1910 ha         1 2RU       0.153000
     28 H3          -5.0090    -1.0220     1.3500 ha         1 2RU       0.147500
     29 H4          -2.6440    -0.5550     1.4650 ha         1 2RU       0.153000
     30 H5          -0.9810     1.5270    -1.1620 hn         1 2RU       0.313500
     31 H6           1.0780     1.5100    -0.7600 hn         1 2RU       0.305500
     32 H7           1.9650     0.4110     1.8190 h1         1 2RU       0.084700
     33 H8           3.3980     2.0400    -0.3190 hc         1 2RU       0.056200
     34 H9           2.8640     2.6040     1.2630 hc         1 2RU       0.056200
     35 H10          5.3010     2.0580     1.2450 h1         1 2RU       0.061950
     36 H11          4.4200     1.0540     2.3850 h1         1 2RU       0.061950
     37 H12          4.4980    -1.9370     0.3260 h1         1 2RU       0.061950
     38 H13          3.9630    -1.2560     1.8400 h1         1 2RU       0.061950
     39 H14          2.0570    -1.4920     0.2840 hc         1 2RU       0.056200
     40 H15          2.8940    -0.5230    -0.9280 hc         1 2RU       0.056200
     41 H16          5.6410    -1.6900    -1.2290 hc         1 2RU       0.053700
     42 H17          8.3090    -0.3410    -1.8230 hc         1 2RU       0.042033
     43 H18          7.6470    -1.7750    -2.6030 hc         1 2RU       0.042033
     44 H19          6.8570    -0.2160    -2.8170 hc         1 2RU       0.042033
     45 H20          6.6960    -2.3320     0.9720 hc         1 2RU       0.042033
     46 H21          7.5880    -2.9780    -0.4020 hc         1 2RU       0.042033
     47 H22          8.1930    -1.5580     0.4510 hc         1 2RU       0.042033
@<TRIPOS>BOND
     1     1     2 1   
     2     2     3 1   
     3     2     4 1   
     4     2     5 1   
     5     5     6 ar  
     6     5     8 ar  
     7     6     7 ar  
     8     6    26 1   
     9     7    10 ar  
    10     7    27 1   
    11     8     9 ar  
    12     8    28 1   
    13     9    10 ar  
    14     9    29 1   
    15    10    11 1   
    16    11    12 1   
    17    11    30 1   
    18    12    13 2   
    19    12    14 1   
    20    14    15 1   
    21    14    31 1   
    22    15    16 1   
    23    15    20 1   
    24    15    32 1   
    25    16    17 1   
    26    16    33 1   
    27    16    34 1   
    28    17    18 1   
    29    17    35 1   
    30    17    36 1   
    31    18    19 1   
    32    18    21 1   
    33    19    20 1   
    34    19    37 1   
    35    19    38 1   
    36    20    39 1   
    37    20    40 1   
    38    21    22 2   
    39    21    23 1   
    40    23    24 1   
    41    23    25 1   
    42    23    41 1   
    43    24    42 1   
    44    24    43 1   
    45    24    44 1   
    46    25    45 1   
    47    25    46 1   
    48    25    47 1   
@<TRIPOS>SUBSTRUCTURE
     1 2RU         1 TEMP              0 ****  ****    0 ROOT
