@<TRIPOS>MOLECULE
2RU
   47    48     1     0     0
SMALL
No Charge or Current Charge


@<TRIPOS>ATOM
      1 F23         -7.7780     0.6150     0.8160 f          1 2RU      -0.116000
      2 C20         -7.1790    -0.1770    -0.1010 c3         1 2RU       0.362300
      3 F21         -7.4670    -1.4560     0.2320 f          1 2RU      -0.116000
      4 F22         -7.7890     0.0580    -1.2860 f          1 2RU      -0.116000
      5 C19         -5.6700     0.0850    -0.1610 ca         1 2RU      -0.236300
      6 C18         -5.1440     1.0590    -1.0340 ca         1 2RU      -0.027000
      7 C17         -3.7610     1.3010    -1.0780 ca         1 2RU      -0.169500
      8 C24         -4.7850    -0.6270     0.6760 ca         1 2RU      -0.027000
      9 C25         -3.4020    -0.3800     0.6290 ca         1 2RU      -0.169500
     10 C1          -2.8750     0.5870    -0.2520 ca         1 2RU       0.034000
     11 N2          -1.4910     0.8900    -0.3540 ns         1 2RU      -0.163000
     12 C3          -0.3760     0.3800     0.2890 c          1 2RU       0.662100
     13 O16         -0.3860    -0.5030     1.1350 o          1 2RU      -0.616100
     14 N4           0.7890     0.9810    -0.1270 ns         1 2RU      -0.513900
     15 C5           2.1350     0.6480     0.3510 c6         1 2RU       0.121700
     16 C15          3.0920     1.8280     0.1110 c6         1 2RU      -0.119900
     17 C14          4.5230     1.4970     0.5890 c6         1 2RU       0.097500
     18 N8           5.0810     0.2290     0.0280 n          1 2RU      -0.410800
     19 C7           4.1250    -0.9230     0.0640 c6         1 2RU       0.097500
     20 C6           2.6940    -0.5720    -0.4040 c6         1 2RU      -0.119900
     21 C9           6.4760     0.0040     0.1400 c          1 2RU       0.605100
     22 O13          7.1790     0.7800     0.7780 o          1 2RU      -0.603100
     23 C10          7.1110    -1.2130    -0.5850 c3         1 2RU      -0.135700
     24 C12          8.4110    -0.8300    -1.3340 c3         1 2RU      -0.082600
     25 C11          7.3540    -2.3720     0.4120 c3         1 2RU      -0.082600
     26 H1          -5.8040     1.6340    -1.6820 ha         1 2RU       0.129500
     27 H2          -3.3770     2.0560    -1.7610 ha         1 2RU       0.135000
     28 H3          -5.1650    -1.3740     1.3710 ha         1 2RU       0.129500
     29 H4          -2.7600    -0.9520     1.2900 ha         1 2RU       0.135000
     30 H5          -1.2860     1.6170    -1.0260 hn         1 2RU       0.147000
     31 H6           0.7010     1.7030    -0.8300 hn         1 2RU       0.305500
     32 H7           2.0890     0.4280     1.4290 h1         1 2RU       0.084700
     33 H8           3.1170     2.0820    -0.9580 hc         1 2RU       0.056200
     34 H9           2.7280     2.7200     0.6370 hc         1 2RU       0.056200
     35 H10          5.1810     2.3360     0.3200 h1         1 2RU       0.061950
     36 H11          4.5270     1.4240     1.6860 h1         1 2RU       0.061950
     37 H12          4.4810    -1.7560    -0.5540 h1         1 2RU       0.061950
     38 H13          4.0770    -1.2960     1.0980 h1         1 2RU       0.061950
     39 H14          2.0400    -1.4410    -0.2540 hc         1 2RU       0.056200
     40 H15          2.7040    -0.3720    -1.4850 hc         1 2RU       0.056200
     41 H16          6.4020    -1.5890    -1.3290 hc         1 2RU       0.053700
     42 H17          9.1870    -0.4960    -0.6350 hc         1 2RU       0.042033
     43 H18          8.8020    -1.6880    -1.8940 hc         1 2RU       0.042033
     44 H19          8.2190    -0.0190    -2.0480 hc         1 2RU       0.042033
     45 H20          6.4200    -2.6650     0.9060 hc         1 2RU       0.042033
     46 H21          7.7540    -3.2520    -0.1060 hc         1 2RU       0.042033
     47 H22          8.0710    -2.0750     1.1880 hc         1 2RU       0.042033
@<TRIPOS>BOND
     1     1     2 1   
     2     2     3 1   
     3     2     4 1   
     4     2     5 1   
     5     5     6 ar  
     6     5     8 ar  
     7     6     7 ar  
     8     6    26 1   
     9     7    10 ar  
    10     7    27 1   
    11     8     9 ar  
    12     8    28 1   
    13     9    10 ar  
    14     9    29 1   
    15    10    11 1   
    16    11    12 1   
    17    11    30 1   
    18    12    13 2   
    19    12    14 1   
    20    14    15 1   
    21    14    31 1   
    22    15    16 1   
    23    15    20 1   
    24    15    32 1   
    25    16    17 1   
    26    16    33 1   
    27    16    34 1   
    28    17    18 1   
    29    17    35 1   
    30    17    36 1   
    31    18    19 1   
    32    18    21 1   
    33    19    20 1   
    34    19    37 1   
    35    19    38 1   
    36    20    39 1   
    37    20    40 1   
    38    21    22 2   
    39    21    23 1   
    40    23    24 1   
    41    23    25 1   
    42    23    41 1   
    43    24    42 1   
    44    24    43 1   
    45    24    44 1   
    46    25    45 1   
    47    25    46 1   
    48    25    47 1   
@<TRIPOS>SUBSTRUCTURE
     1 2RU         1 TEMP              0 ****  ****    0 ROOT
