@<TRIPOS>MOLECULE
2RV
   45    46     1     0     0
SMALL
abcg2


@<TRIPOS>ATOM
      1 F23         -6.4600    -0.3840    -1.8130 f          1 2RV      -0.110333
      2 C20         -6.7410    -0.2690    -0.5130 c3         1 2RV       0.512000
      3 F21         -8.0490    -0.1150    -0.3820 f          1 2RV      -0.110333
      4 F22         -6.3970    -1.4270     0.0560 f          1 2RV      -0.110333
      5 O19         -6.1480     0.7850     0.0550 os         1 2RV      -0.399100
      6 C18         -4.7560     0.8410     0.0220 ca         1 2RV       0.060100
      7 C17         -4.0230     0.2770     1.0510 ca         1 2RV      -0.072000
      8 C16         -2.6410     0.3840     1.0570 ca         1 2RV      -0.140500
      9 C24         -4.1270     1.5240    -1.0030 ca         1 2RV      -0.072000
     10 C25         -2.7470     1.6210    -1.0020 ca         1 2RV      -0.140500
     11 C1          -1.9840     1.0510     0.0200 ca         1 2RV       0.007000
     12 N2          -0.6040     1.2310    -0.0230 ns         1 2RV      -0.167000
     13 C3           0.3480     0.3680     0.4710 c          1 2RV       0.663100
     14 O15          0.0670    -0.6720     1.0490 o          1 2RV      -0.619100
     15 N4           1.6170     0.7940     0.2700 ns         1 2RV      -0.519900
     16 C5           2.7820     0.0030     0.5960 c6         1 2RV       0.122700
     17 C14          3.8120     0.8410     1.3480 c6         1 2RV      -0.115900
     18 C13          5.0660     0.0240     1.6380 c6         1 2RV       0.100500
     19 N8           5.6140    -0.5370     0.4160 n          1 2RV      -0.417800
     20 C7           4.6770    -1.3910    -0.2890 c6         1 2RV       0.100500
     21 C6           3.4100    -0.6230    -0.6490 c6         1 2RV      -0.115900
     22 C9           6.8290    -0.1600    -0.0440 c          1 2RV       0.605100
     23 O12          7.5390     0.6250     0.5730 o          1 2RV      -0.602100
     24 C10          7.2980    -0.7610    -1.3580 c3         1 2RV      -0.152400
     25 C11          8.6960    -0.3160    -1.7490 c3         1 2RV      -0.077100
     26 H1          -4.5210    -0.2260     1.8690 ha         1 2RV       0.135500
     27 H2          -2.0910    -0.0420     1.8790 ha         1 2RV       0.133000
     28 H3          -4.7000     1.9820    -1.7980 ha         1 2RV       0.135500
     29 H4          -2.2540     2.1450    -1.8120 ha         1 2RV       0.133000
     30 H5          -0.2880     1.9720    -0.6300 hn         1 2RV       0.147000
     31 H6           1.7760     1.6350    -0.2630 hn         1 2RV       0.306500
     32 H7           2.4490    -0.8040     1.2530 h1         1 2RV       0.088700
     33 H8           4.0840     1.7220     0.7580 hc         1 2RV       0.054950
     34 H9           3.3870     1.1980     2.2890 hc         1 2RV       0.054950
     35 H10          5.8170     0.6380     2.1270 h1         1 2RV       0.059700
     36 H11          4.8240    -0.7960     2.3220 h1         1 2RV       0.059700
     37 H12          5.1270    -1.8100    -1.1840 h1         1 2RV       0.059700
     38 H13          4.4210    -2.2380     0.3570 h1         1 2RV       0.059700
     39 H14          2.6990    -1.3020    -1.1250 hc         1 2RV       0.054950
     40 H15          3.6500     0.1590    -1.3770 hc         1 2RV       0.054950
     41 H16          7.2640    -1.8510    -1.2900 hc         1 2RV       0.054200
     42 H17          6.5910    -0.4930    -2.1490 hc         1 2RV       0.054200
     43 H18          9.4340    -0.6020    -1.0000 hc         1 2RV       0.042700
     44 H19          8.9810    -0.7860    -2.6890 hc         1 2RV       0.042700
     45 H20          8.7570     0.7630    -1.8850 hc         1 2RV       0.042700
@<TRIPOS>BOND
     1     1     2 1   
     2     2     3 1   
     3     2     4 1   
     4     2     5 1   
     5     5     6 1   
     6     6     7 ar  
     7     6     9 ar  
     8     7     8 ar  
     9     7    26 1   
    10     8    11 ar  
    11     8    27 1   
    12     9    10 ar  
    13     9    28 1   
    14    10    11 ar  
    15    10    29 1   
    16    11    12 1   
    17    12    13 1   
    18    12    30 1   
    19    13    14 2   
    20    13    15 1   
    21    15    16 1   
    22    15    31 1   
    23    16    17 1   
    24    16    21 1   
    25    16    32 1   
    26    17    18 1   
    27    17    33 1   
    28    17    34 1   
    29    18    19 1   
    30    18    35 1   
    31    18    36 1   
    32    19    20 1   
    33    19    22 1   
    34    20    21 1   
    35    20    37 1   
    36    20    38 1   
    37    21    39 1   
    38    21    40 1   
    39    22    23 2   
    40    22    24 1   
    41    24    25 1   
    42    24    41 1   
    43    24    42 1   
    44    25    43 1   
    45    25    44 1   
    46    25    45 1   
@<TRIPOS>SUBSTRUCTURE
     1 2RV         1 TEMP              0 ****  ****    0 ROOT
