@<TRIPOS>MOLECULE
2RV
   45    46     1     0     0
SMALL
No Charge or Current Charge


@<TRIPOS>ATOM
      1 F23         -6.7250    -1.2740    -1.2660 f          1 2RV      -0.110333
      2 C20         -7.0510    -0.2450    -0.4500 c3         1 2RV       0.512000
      3 F21         -8.3310     0.0850    -0.7270 f          1 2RV      -0.110333
      4 F22         -7.0300    -0.7010     0.8240 f          1 2RV      -0.110333
      5 O19         -6.1810     0.8910    -0.6340 os         1 2RV      -0.399100
      6 C18         -4.8120     0.8640    -0.4270 ca         1 2RV       0.060100
      7 C17         -4.1070    -0.2880    -0.0090 ca         1 2RV      -0.072000
      8 C16         -2.7130    -0.2370     0.1800 ca         1 2RV      -0.140500
      9 C24         -4.1020     2.0540    -0.6500 ca         1 2RV      -0.072000
     10 C25         -2.7100     2.1030    -0.4610 ca         1 2RV      -0.140500
     11 C1          -2.0010     0.9620    -0.0440 ca         1 2RV       0.007000
     12 N2          -0.5950     1.0860     0.1260 ns         1 2RV      -0.167000
     13 C3           0.3780     0.1870     0.5310 c          1 2RV       0.663100
     14 O15          0.1800    -0.9770     0.8470 o          1 2RV      -0.619100
     15 N4           1.6340     0.7470     0.5480 ns         1 2RV      -0.519900
     16 C5           2.8720     0.0490     0.9110 c6         1 2RV       0.122700
     17 C14          3.9400     1.0680     1.3770 c6         1 2RV      -0.115900
     18 C13          5.2800     0.3610     1.6890 c6         1 2RV       0.100500
     19 N8           5.7530    -0.4070     0.5070 n          1 2RV      -0.417800
     20 C7           4.7670    -1.4260     0.0510 c6         1 2RV       0.100500
     21 C6           3.4180    -0.7560    -0.2950 c6         1 2RV      -0.115900
     22 C9           6.9080    -0.0280    -0.2230 c          1 2RV       0.605100
     23 O12          7.5740     0.9390     0.1270 o          1 2RV      -0.602100
     24 C10          7.3310    -0.8710    -1.4450 c3         1 2RV      -0.152400
     25 C11          8.6610    -0.4640    -2.1220 c3         1 2RV      -0.077100
     26 H1          -4.6150    -1.2300     0.1740 ha         1 2RV       0.135500
     27 H2          -2.2080    -1.1420     0.5000 ha         1 2RV       0.133000
     28 H3          -4.6350     2.9460    -0.9720 ha         1 2RV       0.135500
     29 H4          -2.1810     3.0370    -0.6400 ha         1 2RV       0.133000
     30 H5          -0.2410     2.0080    -0.0920 hn         1 2RV       0.147000
     31 H6           1.7010     1.7190     0.2720 hn         1 2RV       0.306500
     32 H7           2.6570    -0.6440     1.7400 h1         1 2RV       0.088700
     33 H8           4.1030     1.8270     0.6000 hc         1 2RV       0.054950
     34 H9           3.5870     1.6000     2.2710 hc         1 2RV       0.054950
     35 H10          6.0240     1.1070     2.0040 h1         1 2RV       0.059700
     36 H11          5.1430    -0.3310     2.5330 h1         1 2RV       0.059700
     37 H12          5.1240    -1.9920    -0.8180 h1         1 2RV       0.059700
     38 H13          4.6140    -2.1560     0.8600 h1         1 2RV       0.059700
     39 H14          2.6930    -1.5250    -0.5950 hc         1 2RV       0.054950
     40 H15          3.5500    -0.0930    -1.1610 hc         1 2RV       0.054950
     41 H16          7.3450    -1.9250    -1.1450 hc         1 2RV       0.054200
     42 H17          6.5050    -0.8580    -2.1650 hc         1 2RV       0.054200
     43 H18          9.4960    -0.5400    -1.4140 hc         1 2RV       0.042700
     44 H19          8.8730    -1.1210    -2.9740 hc         1 2RV       0.042700
     45 H20          8.6100     0.5680    -2.4900 hc         1 2RV       0.042700
@<TRIPOS>BOND
     1     1     2 1   
     2     2     3 1   
     3     2     4 1   
     4     2     5 1   
     5     5     6 1   
     6     6     7 ar  
     7     6     9 ar  
     8     7     8 ar  
     9     7    26 1   
    10     8    11 ar  
    11     8    27 1   
    12     9    10 ar  
    13     9    28 1   
    14    10    11 ar  
    15    10    29 1   
    16    11    12 1   
    17    12    13 1   
    18    12    30 1   
    19    13    14 2   
    20    13    15 1   
    21    15    16 1   
    22    15    31 1   
    23    16    17 1   
    24    16    21 1   
    25    16    32 1   
    26    17    18 1   
    27    17    33 1   
    28    17    34 1   
    29    18    19 1   
    30    18    35 1   
    31    18    36 1   
    32    19    20 1   
    33    19    22 1   
    34    20    21 1   
    35    20    37 1   
    36    20    38 1   
    37    21    39 1   
    38    21    40 1   
    39    22    23 2   
    40    22    24 1   
    41    24    25 1   
    42    24    41 1   
    43    24    42 1   
    44    25    43 1   
    45    25    44 1   
    46    25    45 1   
@<TRIPOS>SUBSTRUCTURE
     1 2RV         1 TEMP              0 ****  ****    0 ROOT
