@<TRIPOS>MOLECULE
2RW
   55    58     1     0     0
SMALL
abcg2


@<TRIPOS>ATOM
      1 N1           2.2890    -4.1540     1.1660 nb         1 2RW      -0.334000
      2 C2           3.1740    -3.3180     1.7010 ca         1 2RW       0.144900
      3 N3           3.2530    -2.0060     1.5620 nb         1 2RW      -0.218000
      4 C4           2.3030    -1.5380     0.7560 ca         1 2RW       0.108500
      5 C5           1.3320    -2.2860     0.1090 ca         1 2RW      -0.067600
      6 C6           1.3310    -3.6680     0.3660 ca         1 2RW       0.432900
      7 N6           0.4300    -4.5070    -0.1560 nv         1 2RW      -1.070900
      8 N7           0.5170    -1.4760    -0.6370 nc         1 2RW      -0.560100
      9 C8           0.9660    -0.2730    -0.4370 cd         1 2RW       0.465700
     10 N9           2.0560    -0.2440     0.3960 na         1 2RW      -0.294300
     11 C1           2.7790     0.9180     0.8480 c5         1 2RW       0.324300
     12 C7           3.6060     1.6070    -0.2370 c5         1 2RW       0.068300
     13 O2           4.8510     0.9860    -0.3540 oh         1 2RW      -0.708000
     14 C3           3.6470     3.0440     0.2950 c5         1 2RW       0.096300
     15 O3           4.5750     3.1620     1.3420 oh         1 2RW      -0.715000
     16 O4           1.8690     1.8760     1.3030 os         1 2RW      -0.405000
     17 C9           2.2400     3.1830     0.8590 c5         1 2RW       0.157300
     18 C10          1.2650     3.6960    -0.1860 c3         1 2RW       0.216600
     19 O5          -0.0450     3.5970     0.3150 os         1 2RW      -0.561400
     20 PA          -1.2760     3.2660    -0.7330 p5         1 2RW       1.468800
     21 O1A         -0.8620     2.1640    -1.6610 o          1 2RW      -0.856500
     22 O2A         -1.8020     4.5520    -1.2880 o          1 2RW      -0.856500
     23 O3A         -2.2740     2.7280     0.4510 os         1 2RW      -0.684800
     24 PB          -3.6460     1.8550     0.2310 p5         1 2RW       1.463800
     25 O1B         -4.2130     2.0820    -1.1350 o          1 2RW      -0.854000
     26 O2B         -4.4790     2.0900     1.4520 o          1 2RW      -0.854000
     27 O5D         -2.9700     0.3650     0.3200 os         1 2RW      -0.579400
     28 C5D         -3.6190    -0.7270    -0.2910 c3         1 2RW       0.240600
     29 O4D         -2.6150    -2.2380     1.2930 os         1 2RW      -0.417000
     30 C1D         -3.0060    -3.5700     1.5650 c5         1 2RW       0.161600
     31 C2D         -3.9960    -3.9160     0.4670 c5         1 2RW      -0.158400
     32 O3D         -2.3410    -3.9540    -1.3370 oh         1 2RW      -0.725000
     33 C3D         -3.3830    -3.2050    -0.7340 c5         1 2RW       0.129300
     34 C4D         -2.7630    -1.9590    -0.0960 c5         1 2RW       0.144300
     35 H1           3.9220    -3.7770     2.3390 h5         1 2RW       0.018100
     36 H2           0.4160    -5.4580     0.1730 hn         1 2RW       0.499000
     37 H3          -0.4150    -4.1630    -0.5950 hn         1 2RW       0.499000
     38 H4           0.5160     0.6250    -0.8450 h5         1 2RW       0.151800
     39 H5           3.4350     0.5690     1.6540 h2         1 2RW       0.093700
     40 H6           3.0570     1.5910    -1.1860 h1         1 2RW       0.075700
     41 H7           5.2320     1.2100    -1.2080 ho         1 2RW       0.497000
     42 H8           3.8390     3.7740    -0.5040 h1         1 2RW       0.045700
     43 H9           5.3940     2.7370     1.0600 ho         1 2RW       0.501000
     44 H10          2.2290     3.8520     1.7250 h1         1 2RW       0.089700
     45 H11          1.5240     4.7380    -0.4080 h1         1 2RW       0.010200
     46 H12          1.3770     3.1330    -1.1190 h1         1 2RW       0.010200
     47 H15         -4.6210    -0.8910     0.1320 h1         1 2RW       0.012700
     48 H16         -3.7440    -0.5580    -1.3660 h1         1 2RW       0.012700
     49 H19         -4.1280    -4.9880     0.3140 hc         1 2RW       0.042700
     50 H20         -4.9760    -3.4870     0.6860 hc         1 2RW       0.042700
     51 H21         -2.7040    -4.7920    -1.6420 ho         1 2RW       0.478000
     52 H22         -4.1400    -2.9470    -1.4850 h1         1 2RW       0.049700
     53 H23         -1.7760    -1.7680    -0.5320 h1         1 2RW       0.120700
     54 H17         -2.1430    -4.2480     1.5420 h1         1 2RW       0.024700
     55 H18         -3.4390    -3.6160     2.5660 h1         1 2RW       0.024700
@<TRIPOS>BOND
     1     1     2 ar  
     2     1     6 ar  
     3     2     3 ar  
     4     2    35 1   
     5     3     4 ar  
     6     4     5 ar  
     7     4    10 1   
     8     5     6 ar  
     9     5     8 1   
    10     6     7 1   
    11     7    36 1   
    12     7    37 1   
    13     8     9 2   
    14     9    10 1   
    15     9    38 1   
    16    10    11 1   
    17    11    12 1   
    18    11    16 1   
    19    11    39 1   
    20    12    13 1   
    21    12    14 1   
    22    12    40 1   
    23    13    41 1   
    24    14    15 1   
    25    14    17 1   
    26    14    42 1   
    27    15    43 1   
    28    16    17 1   
    29    17    18 1   
    30    17    44 1   
    31    18    19 1   
    32    18    45 1   
    33    18    46 1   
    34    19    20 1   
    35    20    21 1   
    36    20    22 1   
    37    20    23 1   
    38    23    24 1   
    39    24    25 1   
    40    24    26 1   
    41    24    27 1   
    42    27    28 1   
    43    28    34 1   
    44    28    47 1   
    45    28    48 1   
    46    29    30 1   
    47    29    34 1   
    48    30    31 1   
    49    30    54 1   
    50    30    55 1   
    51    31    33 1   
    52    31    49 1   
    53    31    50 1   
    54    32    33 1   
    55    32    51 1   
    56    33    34 1   
    57    33    52 1   
    58    34    53 1   
@<TRIPOS>SUBSTRUCTURE
     1 2RW         1 TEMP              0 ****  ****    0 ROOT
