@<TRIPOS>MOLECULE
2RW
   55    58     1     0     0
SMALL
No Charge or Current Charge


@<TRIPOS>ATOM
      1 N1           2.0530    -4.2240     1.4130 nb         1 2RW      -0.334000
      2 C2           2.7070    -3.2810     2.1320 ca         1 2RW       0.144900
      3 N3           2.8240    -1.9670     1.8250 nb         1 2RW      -0.218000
      4 C4           2.2430    -1.5750     0.6730 ca         1 2RW       0.108500
      5 C5           1.5810    -2.4570    -0.1420 ca         1 2RW      -0.067600
      6 C6           1.4850    -3.8030     0.2730 ca         1 2RW       0.432900
      7 N6           0.7590    -4.7340    -0.3980 nv         1 2RW      -1.070900
      8 N7           1.0690    -1.8460    -1.2800 nc         1 2RW      -0.560100
      9 C8           1.4150    -0.5580    -1.0880 cd         1 2RW       0.465700
     10 N9           2.1430    -0.3350     0.0970 na         1 2RW      -0.294300
     11 C1           2.4830     0.9570     0.6790 c5         1 2RW       0.324300
     12 C7           3.5170     1.8400    -0.0990 c5         1 2RW       0.068300
     13 O2           4.8990     1.5480     0.2000 oh         1 2RW      -0.708000
     14 C3           3.1100     3.2450     0.4280 c5         1 2RW       0.096300
     15 O3           3.6200     3.4480     1.7520 oh         1 2RW      -0.715000
     16 O4           1.2830     1.7520     0.7810 os         1 2RW      -0.405000
     17 C9           1.5490     3.1200     0.3680 c5         1 2RW       0.157300
     18 C10          0.9800     3.3860    -1.0640 c3         1 2RW       0.216600
     19 O5          -0.4260     3.6950    -1.0410 os         1 2RW      -0.561400
     20 PA          -1.5640     2.5780    -0.7820 p5         1 2RW       1.468800
     21 O1A         -1.1430     1.2810    -1.3850 o          1 2RW      -0.856500
     22 O2A         -2.8440     3.0800    -1.3630 o          1 2RW      -0.856500
     23 O3A         -1.5330     2.6140     0.7910 os         1 2RW      -0.684800
     24 PB          -2.6040     1.7870     1.6050 p5         1 2RW       1.463800
     25 O1B         -4.0170     2.0450     1.2020 o          1 2RW      -0.854000
     26 O2B         -2.4400     2.0880     3.0590 o          1 2RW      -0.854000
     27 O5D         -2.1510     0.2640     1.3290 os         1 2RW      -0.579400
     28 C5D         -2.9380    -0.5600     0.4560 c3         1 2RW       0.240600
     29 O4D         -2.4630    -2.8310     1.3380 os         1 2RW      -0.417000
     30 C1D         -3.7430    -3.4630     1.1160 c5         1 2RW       0.161600
     31 C2D         -4.0580    -3.2900    -0.4030 c5         1 2RW      -0.158400
     32 O3D         -1.8620    -3.8010    -1.3910 oh         1 2RW      -0.725000
     33 C3D         -2.7320    -2.7320    -0.9890 c5         1 2RW       0.129300
     34 C4D         -2.2060    -1.9200     0.2380 c5         1 2RW       0.144300
     35 H1           3.1740    -3.6090     3.0590 h5         1 2RW       0.018100
     36 H2           0.5520    -5.5830     0.1150 hn         1 2RW       0.499000
     37 H3          -0.0460    -4.3530    -0.9070 hn         1 2RW       0.499000
     38 H4           1.1640     0.2610    -1.7520 h5         1 2RW       0.151800
     39 H5           2.8590     0.7570     1.6900 h2         1 2RW       0.093700
     40 H6           3.3390     1.7730    -1.1820 h1         1 2RW       0.075700
     41 H7           5.1230     0.6860    -0.2270 ho         1 2RW       0.497000
     42 H8           3.4740     4.0390    -0.2390 h1         1 2RW       0.045700
     43 H9           4.4760     2.9520     1.7500 ho         1 2RW       0.501000
     44 H10          1.0680     3.8160     1.0670 h1         1 2RW       0.089700
     45 H11          1.5180     4.2430    -1.4900 h1         1 2RW       0.010200
     46 H12          1.1830     2.5280    -1.7160 h1         1 2RW       0.010200
     47 H15         -3.9330    -0.7350     0.8870 h1         1 2RW       0.012700
     48 H16         -3.0840    -0.0730    -0.5160 h1         1 2RW       0.012700
     49 H19         -4.3720    -4.2290    -0.8720 hc         1 2RW       0.042700
     50 H20         -4.8800    -2.5790    -0.5450 hc         1 2RW       0.042700
     51 H21         -2.3350    -4.2900    -2.1030 ho         1 2RW       0.478000
     52 H22         -2.9240    -2.0720    -1.8460 h1         1 2RW       0.049700
     53 H23         -1.1310    -1.7220     0.1590 h1         1 2RW       0.120700
     54 H17         -3.6700    -4.5190     1.4070 h1         1 2RW       0.024700
     55 H18         -4.5020    -2.9780     1.7450 h1         1 2RW       0.024700
@<TRIPOS>BOND
     1     1     2 ar  
     2     1     6 ar  
     3     2     3 ar  
     4     2    35 1   
     5     3     4 ar  
     6     4     5 ar  
     7     4    10 1   
     8     5     6 ar  
     9     5     8 1   
    10     6     7 1   
    11     7    36 1   
    12     7    37 1   
    13     8     9 2   
    14     9    10 1   
    15     9    38 1   
    16    10    11 1   
    17    11    12 1   
    18    11    16 1   
    19    11    39 1   
    20    12    13 1   
    21    12    14 1   
    22    12    40 1   
    23    13    41 1   
    24    14    15 1   
    25    14    17 1   
    26    14    42 1   
    27    15    43 1   
    28    16    17 1   
    29    17    18 1   
    30    17    44 1   
    31    18    19 1   
    32    18    45 1   
    33    18    46 1   
    34    19    20 1   
    35    20    21 1   
    36    20    22 1   
    37    20    23 1   
    38    23    24 1   
    39    24    25 1   
    40    24    26 1   
    41    24    27 1   
    42    27    28 1   
    43    28    34 1   
    44    28    47 1   
    45    28    48 1   
    46    29    30 1   
    47    29    34 1   
    48    30    31 1   
    49    30    54 1   
    50    30    55 1   
    51    31    33 1   
    52    31    49 1   
    53    31    50 1   
    54    32    33 1   
    55    32    51 1   
    56    33    34 1   
    57    33    52 1   
    58    34    53 1   
@<TRIPOS>SUBSTRUCTURE
     1 2RW         1 TEMP              0 ****  ****    0 ROOT
