@<TRIPOS>MOLECULE
2RY
   52    56     1     0     0
SMALL
abcg2


@<TRIPOS>ATOM
      1 F1          -4.7880     2.3540     1.4930 f          1 2RY      -0.115333
      2 C22         -4.2610     1.5050     0.6060 c3         1 2RY       0.353300
      3 F2          -4.1220     2.1920    -0.5410 f          1 2RY      -0.115333
      4 F3          -3.0200     1.2290     1.0350 f          1 2RY      -0.115333
      5 C21         -5.0940     0.2720     0.4220 ca         1 2RY      -0.178300
      6 C20         -6.3560     0.2190     1.0070 ca         1 2RY      -0.062000
      7 C19         -7.1630    -0.8940     0.8370 ca         1 2RY      -0.113000
      8 C18         -6.7100    -1.9600     0.0770 ca         1 2RY      -0.077000
      9 C17         -5.4530    -1.9050    -0.5050 ca         1 2RY      -0.103000
     10 C16         -4.6250    -0.8000    -0.3480 ca         1 2RY      -0.010300
     11 C9          -3.2730    -0.8250    -1.0010 c3         1 2RY      -0.124100
     12 C8          -2.2030    -1.3490    -0.0500 c          1 2RY       0.615100
     13 O1          -2.5120    -1.8410     1.0240 o          1 2RY      -0.588100
     14 N4          -0.9230    -1.2700    -0.4710 n          1 2RY      -0.416800
     15 C15         -0.4670    -0.7060    -1.7260 c6         1 2RY       0.092500
     16 C7           0.4300     0.4960    -1.4780 c6         1 2RY       0.178800
     17 C6           0.1780    -1.6660     0.3870 c6         1 2RY       0.092500
     18 C5           1.0920    -0.4790     0.6300 c6         1 2RY       0.178800
     19 N3           1.5440     0.0890    -0.6370 nh         1 2RY      -0.756300
     20 C1           2.6510     0.9000    -0.6040 ca         1 2RY       0.391900
     21 C3           3.8900     0.4460    -0.0940 ca         1 2RY      -0.169800
     22 N1           2.5490     2.1320    -1.0850 nb         1 2RY      -0.258000
     23 C2           3.5900     2.9530    -0.9810 ca         1 2RY       0.153900
     24 N2           4.7510     2.6910    -0.4170 nb         1 2RY      -0.164000
     25 C4           4.8800     1.4350    -0.0060 ca         1 2RY       0.145300
     26 S1           6.3670     0.8170     0.6490 ss         1 2RY      -0.078900
     27 C11          5.6790    -0.7650     0.7300 cc         1 2RY      -0.101600
     28 C10          4.3960    -0.8330     0.3100 cd         1 2RY      -0.059400
     29 C12          6.2960    -2.0880     1.0310 c5         1 2RY      -0.007200
     30 C13          5.0570    -3.0100     1.0030 c5         1 2RY      -0.079400
     31 C14          3.9630    -2.2680     0.2040 c5         1 2RY      -0.013200
     32 H1          -6.7230     1.0440     1.6000 ha         1 2RY       0.131000
     33 H2          -8.1420    -0.9220     1.2970 ha         1 2RY       0.121000
     34 H3          -7.3340    -2.8330    -0.0650 ha         1 2RY       0.119000
     35 H4          -5.1050    -2.7390    -1.1020 ha         1 2RY       0.117000
     36 H5          -3.3070    -1.4900    -1.8690 hc         1 2RY       0.072700
     37 H6          -2.9980     0.1490    -1.4040 hc         1 2RY       0.072700
     38 H7           0.0910    -1.4710    -2.2740 h1         1 2RY       0.062700
     39 H8          -1.3000    -0.4080    -2.3570 h1         1 2RY       0.062700
     40 H9           0.8070     0.8610    -2.4320 h1         1 2RY       0.061700
     41 H10         -0.1530     1.3040    -1.0180 h1         1 2RY       0.061700
     42 H11         -0.2030    -2.0380     1.3330 h1         1 2RY       0.062700
     43 H12          0.7360    -2.4740    -0.0980 h1         1 2RY       0.062700
     44 H13          0.5490     0.2830     1.2060 h1         1 2RY       0.061700
     45 H14          1.9410    -0.7890     1.2360 h1         1 2RY       0.061700
     46 H15          3.4580     3.9490    -1.3880 h5         1 2RY       0.050100
     47 H16          7.0270    -2.3540     0.2630 hc         1 2RY       0.057700
     48 H17          5.2840    -3.9880     0.5810 hc         1 2RY       0.047700
     49 H18          2.9720    -2.4840     0.6020 hc         1 2RY       0.055700
     50 H19          6.8160    -2.1170     1.9900 hc         1 2RY       0.057700
     51 H20          4.7060    -3.1700     2.0230 hc         1 2RY       0.047700
     52 H21          3.9470    -2.5720    -0.8470 hc         1 2RY       0.055700
@<TRIPOS>BOND
     1     1     2 1   
     2     2     3 1   
     3     2     4 1   
     4     2     5 1   
     5     5     6 ar  
     6     5    10 ar  
     7     6     7 ar  
     8     6    32 1   
     9     7     8 ar  
    10     7    33 1   
    11     8     9 ar  
    12     8    34 1   
    13     9    10 ar  
    14     9    35 1   
    15    10    11 1   
    16    11    12 1   
    17    11    36 1   
    18    11    37 1   
    19    12    13 2   
    20    12    14 1   
    21    14    15 1   
    22    14    17 1   
    23    15    16 1   
    24    15    38 1   
    25    15    39 1   
    26    16    19 1   
    27    16    40 1   
    28    16    41 1   
    29    17    18 1   
    30    17    42 1   
    31    17    43 1   
    32    18    19 1   
    33    18    44 1   
    34    18    45 1   
    35    19    20 1   
    36    20    21 ar  
    37    20    22 ar  
    38    21    25 ar  
    39    21    28 1   
    40    22    23 ar  
    41    23    24 ar  
    42    23    46 1   
    43    24    25 ar  
    44    25    26 1   
    45    26    27 1   
    46    27    28 2   
    47    27    29 1   
    48    28    31 1   
    49    29    30 1   
    50    29    47 1   
    51    29    50 1   
    52    30    31 1   
    53    30    48 1   
    54    30    51 1   
    55    31    49 1   
    56    31    52 1   
@<TRIPOS>SUBSTRUCTURE
     1 2RY         1 TEMP              0 ****  ****    0 ROOT
