@<TRIPOS>MOLECULE
2RY
   52    56     1     0     0
SMALL
No Charge or Current Charge


@<TRIPOS>ATOM
      1 F1          -4.8580     2.5210    -0.1030 f          1 2RY      -0.115333
      2 C22         -4.2890     1.3690    -0.5280 c3         1 2RY       0.353300
      3 F2          -4.1740     1.4820    -1.8710 f          1 2RY      -0.115333
      4 F3          -3.0390     1.3620    -0.0170 f          1 2RY      -0.115333
      5 C21         -5.0870     0.1130    -0.1210 ca         1 2RY      -0.178300
      6 C20         -6.3210     0.2710     0.5590 ca         1 2RY      -0.062000
      7 C19         -7.0830    -0.8400     0.9500 ca         1 2RY      -0.113000
      8 C18         -6.6300    -2.1330     0.6710 ca         1 2RY      -0.077000
      9 C17         -5.4150    -2.3130    -0.0030 ca         1 2RY      -0.103000
     10 C16         -4.6310    -1.2100    -0.4050 ca         1 2RY      -0.010300
     11 C9          -3.3210    -1.5180    -1.1430 c3         1 2RY      -0.124100
     12 C8          -2.1590    -1.7650    -0.1570 c          1 2RY       0.615100
     13 O1          -2.2250    -2.7090     0.6220 o          1 2RY      -0.588100
     14 N4          -1.0440    -0.8880    -0.1110 n          1 2RY      -0.416800
     15 C15         -0.5250    -0.2100    -1.3470 c6         1 2RY       0.092500
     16 C7           0.5220     0.9090    -1.0950 c6         1 2RY       0.178800
     17 C6           0.0080    -1.1290     0.9290 c6         1 2RY       0.092500
     18 C5           1.0410     0.0140     1.1150 c6         1 2RY       0.178800
     19 N3           1.6060     0.4680    -0.1790 nh         1 2RY      -0.756300
     20 C1           2.8240     1.1790    -0.1490 ca         1 2RY       0.391900
     21 C3           4.0710     0.5530     0.0210 ca         1 2RY      -0.169800
     22 N1           2.7630     2.5230    -0.2830 nb         1 2RY      -0.258000
     23 C2           3.9370     3.2000    -0.2380 ca         1 2RY       0.153900
     24 N2           5.1720     2.6740    -0.0750 nb         1 2RY      -0.164000
     25 C4           5.2150     1.3350     0.0530 ca         1 2RY       0.145300
     26 S1           6.7380     0.4030     0.2520 ss         1 2RY      -0.078900
     27 C11          5.7590    -1.0820     0.2630 cc         1 2RY      -0.101600
     28 C10          4.4290    -0.8400     0.1440 cd         1 2RY      -0.059400
     29 C12          6.1670    -2.5110     0.3010 c5         1 2RY      -0.007200
     30 C13          4.8000    -3.2390     0.5170 c5         1 2RY      -0.079400
     31 C14          3.7280    -2.1750     0.0600 c5         1 2RY      -0.013200
     32 H1          -6.7080     1.2610     0.7930 ha         1 2RY       0.131000
     33 H2          -8.0270    -0.6950     1.4720 ha         1 2RY       0.121000
     34 H3          -7.2190    -2.9960     0.9740 ha         1 2RY       0.119000
     35 H4          -5.0750    -3.3250    -0.2120 ha         1 2RY       0.117000
     36 H5          -3.4500    -2.4440    -1.7150 hc         1 2RY       0.072700
     37 H6          -3.0970    -0.7440    -1.8730 hc         1 2RY       0.072700
     38 H7          -0.0710    -0.9730    -1.9940 h1         1 2RY       0.062700
     39 H8          -1.3380     0.2560    -1.9140 h1         1 2RY       0.062700
     40 H9           0.9420     1.2170    -2.0640 h1         1 2RY       0.061700
     41 H10          0.0060     1.7830    -0.6710 h1         1 2RY       0.061700
     42 H11         -0.4740    -1.3140     1.8990 h1         1 2RY       0.062700
     43 H12          0.5460    -2.0480     0.6590 h1         1 2RY       0.062700
     44 H13          0.5450     0.8570     1.6190 h1         1 2RY       0.061700
     45 H14          1.8400    -0.3360     1.7860 h1         1 2RY       0.061700
     46 H15          3.8790     4.2820    -0.3450 h5         1 2RY       0.050100
     47 H16          6.6360    -2.8050    -0.6450 hc         1 2RY       0.057700
     48 H17          4.7270    -4.1790    -0.0400 hc         1 2RY       0.047700
     49 H18          2.8400    -2.2240     0.6960 hc         1 2RY       0.055700
     50 H19          6.8810    -2.7200     1.1060 hc         1 2RY       0.057700
     51 H20          4.6630    -3.4810     1.5770 hc         1 2RY       0.047700
     52 H21          3.3910    -2.3720    -0.9650 hc         1 2RY       0.055700
@<TRIPOS>BOND
     1     1     2 1   
     2     2     3 1   
     3     2     4 1   
     4     2     5 1   
     5     5     6 ar  
     6     5    10 ar  
     7     6     7 ar  
     8     6    32 1   
     9     7     8 ar  
    10     7    33 1   
    11     8     9 ar  
    12     8    34 1   
    13     9    10 ar  
    14     9    35 1   
    15    10    11 1   
    16    11    12 1   
    17    11    36 1   
    18    11    37 1   
    19    12    13 2   
    20    12    14 1   
    21    14    15 1   
    22    14    17 1   
    23    15    16 1   
    24    15    38 1   
    25    15    39 1   
    26    16    19 1   
    27    16    40 1   
    28    16    41 1   
    29    17    18 1   
    30    17    42 1   
    31    17    43 1   
    32    18    19 1   
    33    18    44 1   
    34    18    45 1   
    35    19    20 1   
    36    20    21 ar  
    37    20    22 ar  
    38    21    25 ar  
    39    21    28 1   
    40    22    23 ar  
    41    23    24 ar  
    42    23    46 1   
    43    24    25 ar  
    44    25    26 1   
    45    26    27 1   
    46    27    28 2   
    47    27    29 1   
    48    28    31 1   
    49    29    30 1   
    50    29    47 1   
    51    29    50 1   
    52    30    31 1   
    53    30    48 1   
    54    30    51 1   
    55    31    49 1   
    56    31    52 1   
@<TRIPOS>SUBSTRUCTURE
     1 2RY         1 TEMP              0 ****  ****    0 ROOT
