@<TRIPOS>MOLECULE
2RZ
   73    75     1     0     0
SMALL
abcg2


@<TRIPOS>ATOM
      1 C1           2.9740     2.5830     2.0250 ca         1 2RZ      -0.112000
      2 C2           1.7460     2.9580     2.5560 ca         1 2RZ      -0.110000
      3 C3           0.7160     2.0340     2.6510 ca         1 2RZ      -0.101000
      4 C7          -1.1020    -0.0920     0.9590 c3         1 2RZ       0.159500
      5 C9          -2.2150    -1.1340     0.9590 c          1 2RZ       0.597100
      6 C12          2.1390     0.3500     1.7200 ca         1 2RZ      -0.101000
      7 C13         -4.4770    -1.6090     1.8290 c3         1 2RZ       0.151300
      8 C14         -5.6070    -1.1790     0.9300 ca         1 2RZ      -0.117300
      9 C15         -5.4770    -1.3010    -0.4590 ca         1 2RZ      -0.152000
     10 C16         -6.4870    -0.8900    -1.3080 ca         1 2RZ       0.112100
     11 C21          5.9510     1.6960    -0.9450 ca         1 2RZ      -0.173000
     12 C22          6.5720     0.7350    -0.1670 ca         1 2RZ       0.116100
     13 C24          5.0580    -0.9250    -1.0580 ca         1 2RZ      -0.157000
     14 C30          8.0820     2.2840     0.7880 c3         1 2RZ       0.144900
     15 C31          3.2700    -0.3260    -2.7260 c3         1 2RZ      -0.110100
     16 C32          2.0400    -0.5220    -1.8660 c          1 2RZ       0.620100
     17 C34         -7.8000    -0.2260     0.6030 ca         1 2RZ      -0.177000
     18 C35         -7.6730    -0.3410    -0.7690 ca         1 2RZ       0.117100
     19 C4           0.8980     0.7200     2.2310 ca         1 2RZ      -0.084300
     20 C5           3.1680     1.2740     1.6070 ca         1 2RZ      -0.110000
     21 C6          -0.2460    -0.2520     2.2360 c3         1 2RZ      -0.055100
     22 N8          -0.3030    -0.2400    -0.2250 nu         1 2RZ      -0.894400
     23 N11         -3.2980    -0.7830     1.6690 ns         1 2RZ      -0.502900
     24 C17         -6.7680    -0.6420     1.4470 ca         1 2RZ      -0.101000
     25 C18          0.1700     0.8390    -0.8970 c2         1 2RZ       0.707800
     26 N19         -0.3590     1.9940    -0.8000 n2         1 2RZ      -0.898100
     27 N20          1.2640     0.5900    -1.7450 ns         1 2RZ      -0.481400
     28 C23          6.1120    -0.5990    -0.2230 ca         1 2RZ       0.114100
     29 C25          4.4370     0.0500    -1.8460 ca         1 2RZ      -0.091300
     30 C26          4.8860     1.3530    -1.7780 ca         1 2RZ      -0.103000
     31 C29          6.3250    -2.8120     0.5880 c3         1 2RZ       0.142900
     32 O33          1.8130    -1.5810    -1.3070 o          1 2RZ      -0.586100
     33 O36         -8.6020     0.0310    -1.6690 os         1 2RZ      -0.320100
     34 O37         -6.4460    -0.9690    -2.6510 os         1 2RZ      -0.324100
     35 C38         -5.2930    -1.5240    -3.2510 c3         1 2RZ       0.142900
     36 C39         -9.8090     0.5840    -1.1870 c3         1 2RZ       0.145900
     37 H1           3.7750     3.3070     1.9400 ha         1 2RZ       0.108000
     38 H2           1.5870     3.9760     2.8910 ha         1 2RZ       0.114500
     39 H3          -0.2440     2.3410     3.0500 ha         1 2RZ       0.113500
     40 H4          -1.5360     0.9100     0.9500 h1         1 2RZ       0.099700
     41 H5           2.3040    -0.6720     1.3990 ha         1 2RZ       0.113500
     42 H6          -4.7940    -1.5600     2.8720 h1         1 2RZ       0.062700
     43 H7          -4.1950    -2.6420     1.6270 h1         1 2RZ       0.062700
     44 H8          -4.5670    -1.7280    -0.8600 ha         1 2RZ       0.136000
     45 H9           6.2800     2.7260    -0.9190 ha         1 2RZ       0.121000
     46 H10          4.7040    -1.9460    -1.1160 ha         1 2RZ       0.133000
     47 H11          8.4450     2.6840    -0.1620 h1         1 2RZ       0.040700
     48 H12          7.3110     2.9540     1.1780 h1         1 2RZ       0.040700
     49 H13          8.9090     2.2520     1.4930 h1         1 2RZ       0.040700
     50 H14          3.4650    -1.2610    -3.2520 hc         1 2RZ       0.072700
     51 H15          3.1070     0.4480    -3.4780 hc         1 2RZ       0.072700
     52 H16         -8.6950     0.1910     1.0420 ha         1 2RZ       0.118000
     53 H17          4.1170     0.9710     1.1850 ha         1 2RZ       0.114500
     54 H18         -0.8800    -0.1040     3.1130 hc         1 2RZ       0.059700
     55 H19          0.1300    -1.2780     2.2810 hc         1 2RZ       0.059700
     56 H20          0.2180    -1.1010    -0.3240 hn         1 2RZ       0.530000
     57 H21         -3.3470     0.1550     2.0330 hn         1 2RZ       0.313500
     58 H22         -6.8910    -0.5370     2.5180 ha         1 2RZ       0.109000
     59 H23          0.1270     2.6830    -1.3590 hn         1 2RZ       0.386400
     60 H24          1.5530     1.3940    -2.2830 hn         1 2RZ       0.318500
     61 H25          4.4190     2.1240    -2.3780 ha         1 2RZ       0.109000
     62 H26          6.9580    -3.3340     1.3020 h1         1 2RZ       0.043033
     63 H27          5.2850    -2.8950     0.9140 h1         1 2RZ       0.043033
     64 H28          6.4260    -3.2930    -0.3890 h1         1 2RZ       0.043033
     65 H29         -4.3940    -0.9440    -3.0240 h1         1 2RZ       0.042033
     66 H30         -5.1300    -2.5600    -2.9410 h1         1 2RZ       0.042033
     67 H31         -5.4620    -1.5020    -4.3250 h1         1 2RZ       0.042033
     68 H32        -10.3510    -0.1150    -0.5440 h1         1 2RZ       0.039033
     69 H33         -9.6410     1.5120    -0.6330 h1         1 2RZ       0.039033
     70 H34        -10.4190     0.8040    -2.0590 h1         1 2RZ       0.039033
     71 O10         -2.0860    -2.2090     0.3920 o          1 2RZ      -0.597100
     72 O27          7.6100     0.9590     0.6610 os         1 2RZ      -0.317100
     73 O28          6.7670    -1.4700     0.5660 os         1 2RZ      -0.320100
@<TRIPOS>BOND
     1     1     2 ar  
     2     1    20 ar  
     3     1    37 1   
     4     2     3 ar  
     5     2    38 1   
     6     3    19 ar  
     7     3    39 1   
     8     4     5 1   
     9     4    21 1   
    10     4    22 1   
    11     4    40 1   
    12     5    23 1   
    13     5    71 2   
    14     6    19 ar  
    15     6    20 ar  
    16     6    41 1   
    17     7     8 1   
    18     7    23 1   
    19     7    42 1   
    20     7    43 1   
    21     8     9 ar  
    22     8    24 ar  
    23     9    10 ar  
    24     9    44 1   
    25    10    18 ar  
    26    10    34 1   
    27    11    12 ar  
    28    11    30 ar  
    29    11    45 1   
    30    12    28 ar  
    31    12    72 1   
    32    13    28 ar  
    33    13    29 ar  
    34    13    46 1   
    35    14    47 1   
    36    14    48 1   
    37    14    49 1   
    38    14    72 1   
    39    15    16 1   
    40    15    29 1   
    41    15    50 1   
    42    15    51 1   
    43    16    27 1   
    44    16    32 2   
    45    17    18 ar  
    46    17    24 ar  
    47    17    52 1   
    48    18    33 1   
    49    19    21 1   
    50    20    53 1   
    51    21    54 1   
    52    21    55 1   
    53    22    25 1   
    54    22    56 1   
    55    23    57 1   
    56    24    58 1   
    57    25    26 2   
    58    25    27 1   
    59    26    59 1   
    60    27    60 1   
    61    28    73 1   
    62    29    30 ar  
    63    30    61 1   
    64    31    62 1   
    65    31    63 1   
    66    31    64 1   
    67    31    73 1   
    68    33    36 1   
    69    34    35 1   
    70    35    65 1   
    71    35    66 1   
    72    35    67 1   
    73    36    68 1   
    74    36    69 1   
    75    36    70 1   
@<TRIPOS>SUBSTRUCTURE
     1 2RZ         1 TEMP              0 ****  ****    0 ROOT
