@<TRIPOS>MOLECULE
2RZ
   73    75     1     0     0
SMALL
No Charge or Current Charge


@<TRIPOS>ATOM
      1 C1           4.1080     0.6240     2.3090 ca         1 2RZ      -0.112000
      2 C2           3.0810     1.4040     2.8650 ca         1 2RZ      -0.110000
      3 C3           1.8260     0.8290     3.1300 ca         1 2RZ      -0.101000
      4 C7          -0.9240    -0.5450     2.2810 c3         1 2RZ       0.159500
      5 C9          -2.3330    -1.1370     2.6470 c          1 2RZ       0.597100
      6 C12          2.6230    -1.3040     2.2760 ca         1 2RZ      -0.101000
      7 C13         -4.7330    -1.2030     1.8950 c3         1 2RZ       0.151300
      8 C14         -5.5410    -0.7290     0.6950 ca         1 2RZ      -0.117300
      9 C15         -5.1790    -1.1360    -0.6040 ca         1 2RZ      -0.152000
     10 C16         -5.9180    -0.6970    -1.7270 ca         1 2RZ       0.112100
     11 C21          4.7350     2.4420    -0.8340 ca         1 2RZ      -0.173000
     12 C22          5.8280     1.5810    -0.5850 ca         1 2RZ       0.116100
     13 C24          4.5490    -0.2770    -1.5300 ca         1 2RZ      -0.157000
     14 C30          7.1670     3.4030     0.4250 c3         1 2RZ       0.144900
     15 C31          2.1890     0.0480    -2.4180 c3         1 2RZ      -0.110100
     16 C32          1.2270    -0.4790    -1.3500 c          1 2RZ       0.620100
     17 C34         -7.3930     0.5580    -0.2340 ca         1 2RZ      -0.177000
     18 C35         -7.0340     0.1550    -1.5410 ca         1 2RZ       0.117100
     19 C4           1.5880    -0.5290     2.8370 ca         1 2RZ      -0.084300
     20 C5           3.8780    -0.7290     2.0120 ca         1 2RZ      -0.110000
     21 C6           0.2240    -1.1520     3.1300 c3         1 2RZ      -0.055100
     22 N8          -0.5860    -0.7030     0.8330 nu         1 2RZ      -0.894400
     23 N11         -3.3500    -0.7500     1.8070 ns         1 2RZ      -0.502900
     24 C17         -6.6490     0.1180     0.8730 ca         1 2RZ      -0.101000
     25 C18         -0.8150     0.2300    -0.1150 c2         1 2RZ       0.707800
     26 N19         -1.8260     0.9800    -0.0470 n2         1 2RZ      -0.898100
     27 N20          0.1950     0.3730    -1.0310 ns         1 2RZ      -0.481400
     28 C23          5.7340     0.2130    -0.9330 ca         1 2RZ       0.114100
     29 C25          3.4650     0.5860    -1.7780 ca         1 2RZ      -0.091300
     30 C26          3.5630     1.9430    -1.4250 ca         1 2RZ      -0.103000
     31 C29          6.8020    -2.0220    -0.9690 c3         1 2RZ       0.142900
     32 O33          1.3840    -1.5730    -0.8220 o          1 2RZ      -0.586100
     33 O36         -7.7450     0.5710    -2.6550 os         1 2RZ      -0.320100
     34 O37         -5.5810    -1.0770    -3.0170 os         1 2RZ      -0.324100
     35 C38         -4.4490    -1.9190    -3.3040 c3         1 2RZ       0.142900
     36 C39         -8.8900     1.4360    -2.5610 c3         1 2RZ       0.145900
     37 H1           5.0800     1.0670     2.1110 ha         1 2RZ       0.108000
     38 H2           3.2580     2.4530     3.0930 ha         1 2RZ       0.114500
     39 H3           1.0390     1.4410     3.5670 ha         1 2RZ       0.113500
     40 H4          -0.9870     0.5250     2.5240 h1         1 2RZ       0.099700
     41 H5           2.4570    -2.3540     2.0420 ha         1 2RZ       0.113500
     42 H6          -5.1730    -0.8220     2.8260 h1         1 2RZ       0.062700
     43 H7          -4.7490    -2.3010     1.9350 h1         1 2RZ       0.062700
     44 H8          -4.3200    -1.7900    -0.7220 ha         1 2RZ       0.136000
     45 H9           4.7740     3.4950    -0.5740 ha         1 2RZ       0.121000
     46 H10          4.4520    -1.3240    -1.8010 ha         1 2RZ       0.133000
     47 H11          7.0780     4.0880    -0.4280 h1         1 2RZ       0.040700
     48 H12          6.4160     3.6750     1.1780 h1         1 2RZ       0.040700
     49 H13          8.1600     3.5420     0.8700 h1         1 2RZ       0.040700
     50 H14          2.4380    -0.7740    -3.0990 hc         1 2RZ       0.072700
     51 H15          1.7080     0.8520    -2.9890 hc         1 2RZ       0.072700
     52 H16         -8.2430     1.2120    -0.0580 ha         1 2RZ       0.118000
     53 H17          4.6720    -1.3320     1.5790 ha         1 2RZ       0.114500
     54 H18         -0.0120    -1.0130     4.1920 hc         1 2RZ       0.059700
     55 H19          0.2520    -2.2370     2.9670 hc         1 2RZ       0.059700
     56 H20          0.2440    -1.2570     0.6150 hn         1 2RZ       0.530000
     57 H21         -3.0740    -0.1410     1.0390 hn         1 2RZ       0.313500
     58 H22         -6.9360     0.4390     1.8720 ha         1 2RZ       0.109000
     59 H23         -1.7950     1.6480    -0.8260 hn         1 2RZ       0.386400
     60 H24          0.1790     1.2330    -1.5550 hn         1 2RZ       0.318500
     61 H25          2.7300     2.6170    -1.6090 ha         1 2RZ       0.109000
     62 H26          7.7540    -2.4800    -0.6740 h1         1 2RZ       0.043033
     63 H27          5.9970    -2.5300    -0.4230 h1         1 2RZ       0.043033
     64 H28          6.6620    -2.1910    -2.0440 h1         1 2RZ       0.043033
     65 H29         -3.5180    -1.4520    -2.9580 h1         1 2RZ       0.042033
     66 H30         -4.5570    -2.8970    -2.8170 h1         1 2RZ       0.042033
     67 H31         -4.3650    -2.0860    -4.3850 h1         1 2RZ       0.042033
     68 H32         -9.6820     0.9720    -1.9590 h1         1 2RZ       0.039033
     69 H33         -8.6170     2.3970    -2.1050 h1         1 2RZ       0.039033
     70 H34         -9.2970     1.6370    -3.5600 h1         1 2RZ       0.039033
     71 O10         -2.5360    -1.9020     3.5850 o          1 2RZ      -0.597100
     72 O27          6.9970     2.0380     0.0040 os         1 2RZ      -0.317100
     73 O28          6.8140    -0.6150    -0.6690 os         1 2RZ      -0.320100
@<TRIPOS>BOND
     1     1     2 ar  
     2     1    20 ar  
     3     1    37 1   
     4     2     3 ar  
     5     2    38 1   
     6     3    19 ar  
     7     3    39 1   
     8     4     5 1   
     9     4    21 1   
    10     4    22 1   
    11     4    40 1   
    12     5    23 1   
    13     5    71 2   
    14     6    19 ar  
    15     6    20 ar  
    16     6    41 1   
    17     7     8 1   
    18     7    23 1   
    19     7    42 1   
    20     7    43 1   
    21     8     9 ar  
    22     8    24 ar  
    23     9    10 ar  
    24     9    44 1   
    25    10    18 ar  
    26    10    34 1   
    27    11    12 ar  
    28    11    30 ar  
    29    11    45 1   
    30    12    28 ar  
    31    12    72 1   
    32    13    28 ar  
    33    13    29 ar  
    34    13    46 1   
    35    14    47 1   
    36    14    48 1   
    37    14    49 1   
    38    14    72 1   
    39    15    16 1   
    40    15    29 1   
    41    15    50 1   
    42    15    51 1   
    43    16    27 1   
    44    16    32 2   
    45    17    18 ar  
    46    17    24 ar  
    47    17    52 1   
    48    18    33 1   
    49    19    21 1   
    50    20    53 1   
    51    21    54 1   
    52    21    55 1   
    53    22    25 1   
    54    22    56 1   
    55    23    57 1   
    56    24    58 1   
    57    25    26 2   
    58    25    27 1   
    59    26    59 1   
    60    27    60 1   
    61    28    73 1   
    62    29    30 ar  
    63    30    61 1   
    64    31    62 1   
    65    31    63 1   
    66    31    64 1   
    67    31    73 1   
    68    33    36 1   
    69    34    35 1   
    70    35    65 1   
    71    35    66 1   
    72    35    67 1   
    73    36    68 1   
    74    36    69 1   
    75    36    70 1   
@<TRIPOS>SUBSTRUCTURE
     1 2RZ         1 TEMP              0 ****  ****    0 ROOT
