@<TRIPOS>MOLECULE
2S0
   72    76     1     0     0
SMALL
No Charge or Current Charge


@<TRIPOS>ATOM
      1 C1          -3.3750    -0.1760    -1.3550 c6         1 2S0      -0.028200
      2 C2          -4.4050    -1.1320    -1.9960 c6         1 2S0      -0.180400
      3 C3          -5.3640    -1.7190    -0.9620 c          1 2S0       0.575300
      4 C4          -4.7680    -2.0010     0.3630 ce         1 2S0      -0.315200
      5 C5          -3.5060    -1.6260     0.7130 cf         1 2S0       0.000800
      6 C6          -2.9410    -2.0280     2.0770 c6         1 2S0      -0.051200
      7 C7          -1.4750    -2.4590     1.9300 c6         1 2S0      -0.071400
      8 C8          -0.6300    -1.3040     1.3370 c6         1 2S0      -0.016500
      9 C9          -1.2730    -0.7180     0.0530 c2         1 2S0      -0.062400
     10 C10         -2.6190    -0.8570    -0.1780 cf         1 2S0      -0.106200
     11 C11         -0.3490     0.1470    -0.8490 c6         1 2S0       0.030800
     12 C12          1.1430    -0.3200    -0.8990 c6         1 2S0      -0.053400
     13 C13          1.7560    -0.6760     0.4890 c5         1 2S0      -0.025000
     14 C14          0.8390    -1.7610     1.1240 c5         1 2S0      -0.061700
     15 C15          1.6470    -2.1730     2.3850 c5         1 2S0      -0.070400
     16 C16          3.1260    -2.2130     1.8780 c5         1 2S0      -0.087400
     17 C17          3.1210    -1.4930     0.4620 c5         1 2S0       0.089000
     18 C18          1.8890     0.6440     1.3320 c3         1 2S0      -0.094100
     19 C20          4.3630    -0.5280     0.2490 c          1 2S0       0.585100
     20 C21          4.5600     0.0660    -1.1510 c3         1 2S0      -0.196100
     21 O3          -6.5430    -1.9310    -1.2090 o          1 2S0      -0.531100
     22 O20          5.1730    -0.2370     1.1240 o          1 2S0      -0.506100
     23 C32         -0.5080     1.6700    -0.6370 ca         1 2S0      -0.129300
     24 C33         -1.2150     2.2040     0.4620 ca         1 2S0      -0.067000
     25 C34         -1.3490     3.5940     0.6170 ca         1 2S0      -0.186500
     26 C35         -0.7910     4.4850    -0.3200 ca         1 2S0       0.332000
     27 C36         -0.0990     3.9490    -1.4230 ca         1 2S0      -0.186500
     28 C37          0.0370     2.5600    -1.5830 ca         1 2S0      -0.067000
     29 N38         -0.9280     5.8890    -0.1600 nh         1 2S0      -0.820400
     30 C39          0.0750     6.8310    -0.7100 c3         1 2S0       0.212600
     31 C40         -2.0770     6.4770     0.5670 c3         1 2S0       0.212600
     32 C31          3.8280    -4.3470    -1.8980 c3         1 2S0      -0.156100
     33 O30          5.1860    -3.2490    -0.2260 o          1 2S0      -0.482000
     34 O17          3.0170    -2.5220    -0.5870 os         1 2S0      -0.446100
     35 H1          -2.7150     0.1950    -2.1440 hc         1 2S0       0.056200
     36 H2          -4.9630    -0.6810    -2.8260 hc         1 2S0       0.069700
     37 H3          -5.3990    -2.5400     1.0660 ha         1 2S0       0.195000
     38 H4          -3.0240    -1.1820     2.7730 hc         1 2S0       0.057200
     39 H5          -3.5250    -2.8530     2.5090 hc         1 2S0       0.057200
     40 H6          -1.0840    -2.7580     2.9110 hc         1 2S0       0.049700
     41 H7          -1.4180    -3.3440     1.2810 hc         1 2S0       0.049700
     42 H8          -0.6270    -0.5030     2.0870 hc         1 2S0       0.063700
     43 H10         -0.6680    -0.0300    -1.8820 hc         1 2S0       0.055700
     44 H11          1.1750    -1.2070    -1.5460 hc         1 2S0       0.049700
     45 H12          1.7590     0.4270    -1.4120 hc         1 2S0       0.049700
     46 H13          0.7470    -2.6250     0.4530 hc         1 2S0       0.063700
     47 H14          1.5210    -1.4530     3.2020 hc         1 2S0       0.046700
     48 H15          1.3290    -3.1460     2.7760 hc         1 2S0       0.046700
     49 H16          3.7760    -1.7150     2.6060 hc         1 2S0       0.068700
     50 H17          3.4850    -3.2460     1.8200 hc         1 2S0       0.068700
     51 H18          0.9220     1.0560     1.6280 hc         1 2S0       0.046367
     52 H19          2.4600     0.4970     2.2560 hc         1 2S0       0.046367
     53 H20          2.4050     1.4290     0.7640 hc         1 2S0       0.046367
     54 H21          4.0840    -0.5510    -1.9210 hc         1 2S0       0.063367
     55 H22          4.0370     1.0270    -1.1880 hc         1 2S0       0.063367
     56 H23          5.6190     0.2490    -1.3630 hc         1 2S0       0.063367
     57 H25         -1.6600     1.5540     1.2100 ha         1 2S0       0.106500
     58 H26         -1.8840     3.9730     1.4820 ha         1 2S0       0.112000
     59 H27          0.3260     4.6060    -2.1750 ha         1 2S0       0.112000
     60 H28          0.5650     2.1770    -2.4540 ha         1 2S0       0.106500
     61 H29         -0.1400     7.0500    -1.7640 h1         1 2S0       0.035367
     62 H30          0.0720     7.7760    -0.1500 h1         1 2S0       0.035367
     63 H31          1.0850     6.4070    -0.6350 h1         1 2S0       0.035367
     64 H32         -1.8850     6.4870     1.6480 h1         1 2S0       0.035367
     65 H33         -2.2620     7.5080     0.2370 h1         1 2S0       0.035367
     66 H34         -2.9920     5.8990     0.3750 h1         1 2S0       0.035367
     67 H35          3.4850    -3.8100    -2.7890 hc         1 2S0       0.070700
     68 H36          4.6900    -4.9870    -2.1140 hc         1 2S0       0.070700
     69 H37          2.9420    -4.9290    -1.6240 hc         1 2S0       0.070700
     70 H38         -3.8950     0.7100    -0.9670 hc         1 2S0       0.056200
     71 H39         -3.8300    -1.9790    -2.3910 hc         1 2S0       0.069700
     72 C30          4.1080    -3.3370    -0.7960 c          1 2S0       0.590100
@<TRIPOS>BOND
     1     1     2 1   
     2     1    10 1   
     3     1    35 1   
     4     1    70 1   
     5     2     3 1   
     6     2    36 1   
     7     2    71 1   
     8     3     4 1   
     9     3    21 2   
    10     4     5 2   
    11     4    37 1   
    12     5     6 1   
    13     5    10 1   
    14     6     7 1   
    15     6    38 1   
    16     6    39 1   
    17     7     8 1   
    18     7    40 1   
    19     7    41 1   
    20     8     9 1   
    21     8    14 1   
    22     8    42 1   
    23     9    10 2   
    24     9    11 1   
    25    11    12 1   
    26    11    23 1   
    27    11    43 1   
    28    12    13 1   
    29    12    44 1   
    30    12    45 1   
    31    13    14 1   
    32    13    17 1   
    33    13    18 1   
    34    14    15 1   
    35    14    46 1   
    36    15    16 1   
    37    15    47 1   
    38    15    48 1   
    39    16    17 1   
    40    16    49 1   
    41    16    50 1   
    42    17    19 1   
    43    17    34 1   
    44    18    51 1   
    45    18    52 1   
    46    18    53 1   
    47    19    20 1   
    48    19    22 2   
    49    20    54 1   
    50    20    55 1   
    51    20    56 1   
    52    23    24 ar  
    53    23    28 ar  
    54    24    25 ar  
    55    24    57 1   
    56    25    26 ar  
    57    25    58 1   
    58    26    27 ar  
    59    26    29 1   
    60    27    28 ar  
    61    27    59 1   
    62    28    60 1   
    63    29    30 1   
    64    29    31 1   
    65    30    61 1   
    66    30    62 1   
    67    30    63 1   
    68    31    64 1   
    69    31    65 1   
    70    31    66 1   
    71    32    67 1   
    72    32    68 1   
    73    32    69 1   
    74    32    72 1   
    75    33    72 2   
    76    34    72 1   
@<TRIPOS>SUBSTRUCTURE
     1 2S0         1 TEMP              0 ****  ****    0 ROOT
