@<TRIPOS>MOLECULE
2S0
   72    76     1     0     0
SMALL
abcg2


@<TRIPOS>ATOM
      1 C1          -3.2080    -0.3400    -1.5160 c6         1 2S0      -0.028200
      2 C2          -4.2080    -1.3290    -2.1030 c6         1 2S0      -0.180400
      3 C3          -5.1890    -1.8240    -1.0760 c          1 2S0       0.575300
      4 C4          -4.6840    -1.9360     0.2850 ce         1 2S0      -0.315200
      5 C5          -3.4370    -1.5580     0.6460 cf         1 2S0       0.000800
      6 C6          -2.9480    -1.7820     2.0390 c6         1 2S0      -0.051200
      7 C7          -1.4980    -2.2290     2.0030 c6         1 2S0      -0.071400
      8 C8          -0.6340    -1.1710     1.3330 c6         1 2S0      -0.016500
      9 C9          -1.2340    -0.6740     0.0300 c2         1 2S0      -0.062400
     10 C10         -2.5320    -0.8820    -0.2840 cf         1 2S0      -0.106200
     11 C11         -0.3450     0.1590    -0.8740 c6         1 2S0       0.030800
     12 C12          1.1260    -0.3210    -0.9240 c6         1 2S0      -0.053400
     13 C13          1.7010    -0.6580     0.4450 c5         1 2S0      -0.025000
     14 C14          0.7770    -1.6900     1.1020 c5         1 2S0      -0.061700
     15 C15          1.5640    -2.1670     2.3190 c5         1 2S0      -0.070400
     16 C16          3.0410    -2.1000     1.8710 c5         1 2S0      -0.087400
     17 C17          3.0520    -1.4430     0.4750 c5         1 2S0       0.089000
     18 C18          1.8630     0.6070     1.2970 c3         1 2S0      -0.094100
     19 C20          4.2530    -0.5370     0.1920 c          1 2S0       0.585100
     20 C21          4.4840    -0.0800    -1.2260 c3         1 2S0      -0.196100
     21 O3          -6.3230    -2.1640    -1.3720 o          1 2S0      -0.531100
     22 O20          4.9390    -0.1130     1.0920 o          1 2S0      -0.506100
     23 C32         -0.4920     1.6500    -0.5960 ca         1 2S0      -0.129300
     24 C33         -1.2430     2.1780     0.4470 ca         1 2S0      -0.067000
     25 C34         -1.3510     3.5440     0.6640 ca         1 2S0      -0.186500
     26 C35         -0.7060     4.4690    -0.1730 ca         1 2S0       0.332000
     27 C36          0.0180     3.9370    -1.2570 ca         1 2S0      -0.186500
     28 C37          0.1180     2.5710    -1.4460 ca         1 2S0      -0.067000
     29 N38         -0.7750     5.8210     0.0560 nh         1 2S0      -0.820400
     30 C39         -0.3050     6.7380    -0.9550 c3         1 2S0       0.212600
     31 C40         -1.6880     6.3190     1.0570 c3         1 2S0       0.212600
     32 C31          3.6880    -4.2960    -1.7790 c3         1 2S0      -0.156100
     33 O30          5.1010    -2.9930    -0.3300 o          1 2S0      -0.482000
     34 O17          2.9500    -2.4520    -0.5410 os         1 2S0      -0.446100
     35 H1          -2.4980    -0.0610    -2.2920 hc         1 2S0       0.056200
     36 H2          -4.7450    -0.8880    -2.9440 hc         1 2S0       0.069700
     37 H3          -5.3400    -2.3890     1.0200 ha         1 2S0       0.195000
     38 H4          -3.0210    -0.8410     2.5970 hc         1 2S0       0.057200
     39 H5          -3.5800    -2.5060     2.5540 hc         1 2S0       0.057200
     40 H6          -1.1370    -2.4150     3.0160 hc         1 2S0       0.049700
     41 H7          -1.4190    -3.1750     1.4570 hc         1 2S0       0.049700
     42 H8          -0.5820    -0.3140     2.0220 hc         1 2S0       0.063700
     43 H10         -0.6910     0.0160    -1.9000 hc         1 2S0       0.055700
     44 H11          1.1530    -1.2100    -1.5550 hc         1 2S0       0.049700
     45 H12          1.7190     0.4400    -1.4360 hc         1 2S0       0.049700
     46 H13          0.6860    -2.5340     0.4050 hc         1 2S0       0.063700
     47 H14          1.3870    -1.5070     3.1710 hc         1 2S0       0.046700
     48 H15          1.2790    -3.1720     2.6290 hc         1 2S0       0.046700
     49 H16          3.6380    -1.5150     2.5680 hc         1 2S0       0.068700
     50 H17          3.4980    -3.0880     1.8370 hc         1 2S0       0.068700
     51 H18          0.9040     1.0750     1.5000 hc         1 2S0       0.046367
     52 H19          2.3340     0.4120     2.2600 hc         1 2S0       0.046367
     53 H20          2.4600     1.3580     0.7770 hc         1 2S0       0.046367
     54 H21          3.8800    -0.5840    -1.9760 hc         1 2S0       0.063367
     55 H22          4.2570     0.9880    -1.2810 hc         1 2S0       0.063367
     56 H23          5.5370    -0.1940    -1.4830 hc         1 2S0       0.063367
     57 H25         -1.7710     1.5200     1.1270 ha         1 2S0       0.106500
     58 H26         -1.9490     3.8780     1.5000 ha         1 2S0       0.112000
     59 H27          0.5110     4.5870    -1.9660 ha         1 2S0       0.112000
     60 H28          0.6860     2.2170    -2.3000 ha         1 2S0       0.106500
     61 H29         -0.8760     6.6810    -1.8890 h1         1 2S0       0.035367
     62 H30         -0.3820     7.7550    -0.5790 h1         1 2S0       0.035367
     63 H31          0.7460     6.5640    -1.1940 h1         1 2S0       0.035367
     64 H32         -1.4540     5.9200     2.0460 h1         1 2S0       0.035367
     65 H33         -1.5980     7.4010     1.1170 h1         1 2S0       0.035367
     66 H34         -2.7360     6.0810     0.8410 h1         1 2S0       0.035367
     67 H35          3.1190    -3.9190    -2.6280 hc         1 2S0       0.070700
     68 H36          4.5970    -4.7750    -2.1340 hc         1 2S0       0.070700
     69 H37          3.0700    -5.0430    -1.2800 hc         1 2S0       0.070700
     70 H38         -3.7330     0.5810    -1.2380 hc         1 2S0       0.056200
     71 H39         -3.6740    -2.2040    -2.4890 hc         1 2S0       0.069700
     72 C30          4.0160    -3.1980    -0.8170 c          1 2S0       0.590100
@<TRIPOS>BOND
     1     1     2 1   
     2     1    10 1   
     3     1    35 1   
     4     1    70 1   
     5     2     3 1   
     6     2    36 1   
     7     2    71 1   
     8     3     4 1   
     9     3    21 2   
    10     4     5 2   
    11     4    37 1   
    12     5     6 1   
    13     5    10 1   
    14     6     7 1   
    15     6    38 1   
    16     6    39 1   
    17     7     8 1   
    18     7    40 1   
    19     7    41 1   
    20     8     9 1   
    21     8    14 1   
    22     8    42 1   
    23     9    10 2   
    24     9    11 1   
    25    11    12 1   
    26    11    23 1   
    27    11    43 1   
    28    12    13 1   
    29    12    44 1   
    30    12    45 1   
    31    13    14 1   
    32    13    17 1   
    33    13    18 1   
    34    14    15 1   
    35    14    46 1   
    36    15    16 1   
    37    15    47 1   
    38    15    48 1   
    39    16    17 1   
    40    16    49 1   
    41    16    50 1   
    42    17    19 1   
    43    17    34 1   
    44    18    51 1   
    45    18    52 1   
    46    18    53 1   
    47    19    20 1   
    48    19    22 2   
    49    20    54 1   
    50    20    55 1   
    51    20    56 1   
    52    23    24 ar  
    53    23    28 ar  
    54    24    25 ar  
    55    24    57 1   
    56    25    26 ar  
    57    25    58 1   
    58    26    27 ar  
    59    26    29 1   
    60    27    28 ar  
    61    27    59 1   
    62    28    60 1   
    63    29    30 1   
    64    29    31 1   
    65    30    61 1   
    66    30    62 1   
    67    30    63 1   
    68    31    64 1   
    69    31    65 1   
    70    31    66 1   
    71    32    67 1   
    72    32    68 1   
    73    32    69 1   
    74    32    72 1   
    75    33    72 2   
    76    34    72 1   
@<TRIPOS>SUBSTRUCTURE
     1 2S0         1 TEMP              0 ****  ****    0 ROOT
