@<TRIPOS>MOLECULE
2S1
   98   103     1     0     0
SMALL
No Charge or Current Charge


@<TRIPOS>ATOM
      1 C2          -3.1070     0.9790     0.4120 c          1 2S1       0.624700
      2 C3          -3.5640     2.3830     0.7500 ca         1 2S1      -0.129600
      3 O4          -3.3690     0.0030     1.1000 o          1 2S1      -0.577100
      4 C7          -4.3660     5.0390     1.3750 ca         1 2S1       0.127100
      5 C8          -3.0930     4.8010     0.8130 ca         1 2S1       0.123100
      6 C9          -2.7010     3.4800     0.5020 ca         1 2S1      -0.159000
      7 C12         -6.0050     6.6820     2.2440 c3         1 2S1       0.143900
      8 C14         -0.9440     5.7480     0.0140 c3         1 2S1       0.141900
      9 C15         -4.1920    -0.7600    -2.1870 ca         1 2S1      -0.056300
     10 C16         -4.7530    -1.8080    -1.4310 ca         1 2S1      -0.121000
     11 C19         -6.3780     0.3280    -2.2640 ca         1 2S1      -0.079000
     12 C20         -2.7010    -0.7590    -2.5130 c3         1 2S1      -0.044100
     13 C21         -1.8210    -0.3730    -1.2960 c3         1 2S1       0.081700
     14 C22         -0.3030    -0.3000    -1.6360 c3         1 2S1       0.144300
     15 C24         -7.9000    -3.3180    -0.5030 ca         1 2S1       0.112100
     16 C27        -10.4920    -4.3690    -0.7920 ca         1 2S1      -0.124000
     17 C30          0.5720    -0.1340    -0.3660 c3         1 2S1       0.056000
     18 C32         -5.0140     0.3060    -2.6040 ca         1 2S1      -0.131000
     19 C34          2.6450    -1.5850    -0.4900 c3         1 2S1       0.105000
     20 C35          3.0490    -1.9260     0.9600 c3         1 2S1      -0.056100
     21 N1          -2.2970     0.8840    -0.6980 ns         1 2S1      -0.505900
     22 C5          -4.8410     2.6390     1.3110 ca         1 2S1       0.022100
     23 C6          -5.2330     3.9530     1.6170 ca         1 2S1      -0.165000
     24 Br          -6.1420     1.2530     1.6050 br         1 2S1      -0.075100
     25 O11         -4.7300     6.3440     1.6700 os         1 2S1      -0.317100
     26 O13         -2.2580     5.8850     0.5850 os         1 2S1      -0.321100
     27 C17         -6.1170    -1.7940    -1.0980 ca         1 2S1       0.134100
     28 C18         -6.9300    -0.7190    -1.5080 ca         1 2S1      -0.166000
     29 O23         -6.6260    -2.8220    -0.3360 os         1 2S1      -0.253200
     30 C25         -8.4480    -3.4990    -1.7890 ca         1 2S1      -0.134000
     31 C26         -9.7460    -4.0200    -1.9320 ca         1 2S1      -0.094000
     32 C28         -9.9410    -4.2010     0.4900 ca         1 2S1      -0.094000
     33 C29         -8.6430    -3.6800     0.6330 ca         1 2S1      -0.134000
     34 O31         -0.0440     0.8030    -2.5250 oh         1 2S1      -0.661000
     35 N33          2.0320    -0.2400    -0.6270 n          1 2S1      -0.397800
     36 C36          3.6860    -3.3100     1.0660 ca         1 2S1      -0.072300
     37 C37          5.0520    -3.5300     0.7610 ca         1 2S1       0.129000
     38 C38          5.6010    -4.8190     0.8660 ca         1 2S1      -0.096000
     39 C39          4.8000    -5.8960     1.2710 ca         1 2S1       0.126000
     40 C40          3.4450    -5.6900     1.5720 ca         1 2S1      -0.099000
     41 C41          2.8900    -4.4020     1.4700 ca         1 2S1      -0.094000
     42 Cl2          6.1050    -2.2130     0.2410 cl         1 2S1      -0.194000
     43 Cl1          5.4930    -7.5070     1.3980 cl         1 2S1      -0.188000
     44 C44          2.7620     0.8930    -1.0570 c          1 2S1       0.621100
     45 O45          2.1630     1.9150    -1.3690 o          1 2S1      -0.641100
     46 C46          4.2910     0.8230    -1.1380 c3         1 2S1      -0.183400
     47 C47          4.9920     2.1750    -1.3540 c3         1 2S1       0.123000
     48 N48          6.4570     2.0290    -1.3850 n          1 2S1      -0.398400
     49 C49          7.2620     2.1420    -0.2510 c          1 2S1       0.585100
     50 C50          7.1830     1.8350    -2.5600 c          1 2S1       0.585100
     51 C51          8.6100     1.7910    -2.1280 ca         1 2S1      -0.147600
     52 C52          8.6570     1.9740    -0.7510 ca         1 2S1      -0.147600
     53 C53          9.8730     1.9830    -0.0530 ca         1 2S1      -0.045000
     54 C54         11.0600     1.7990    -0.7950 ca         1 2S1      -0.097500
     55 C55         11.0120     1.6130    -2.1990 ca         1 2S1      -0.097500
     56 C56          9.7770     1.6070    -2.8830 ca         1 2S1      -0.045000
     57 O57          6.7390     1.7240    -3.6930 o          1 2S1      -0.484000
     58 O58          6.8950     2.3350     0.8990 o          1 2S1      -0.484000
     59 H1          -1.7130     3.2910     0.0920 ha         1 2S1       0.144000
     60 H2          -6.8250     6.3760     1.5810 h1         1 2S1       0.043033
     61 H3          -6.1360     6.1940     3.2180 h1         1 2S1       0.043033
     62 H4          -6.0780     7.7660     2.3950 h1         1 2S1       0.043033
     63 H5          -0.4670     6.7320    -0.0780 h1         1 2S1       0.047033
     64 H6          -0.3050     5.1200     0.6480 h1         1 2S1       0.047033
     65 H7          -0.9970     5.3020    -0.9870 h1         1 2S1       0.047033
     66 H8          -4.1290    -2.6310    -1.0910 ha         1 2S1       0.127000
     67 H9          -7.0030     1.1600    -2.5800 ha         1 2S1       0.114000
     68 H10         -2.3980    -1.7490    -2.8740 hc         1 2S1       0.059700
     69 H11         -2.5020    -0.0640    -3.3380 hc         1 2S1       0.059700
     70 H12         -1.9400    -1.1750    -0.5540 h1         1 2S1       0.086700
     71 H13         -0.0170    -1.2460    -2.1170 h1         1 2S1       0.068700
     72 H14        -11.4960    -4.7730    -0.9030 ha         1 2S1       0.115000
     73 H15          0.3530     0.8300     0.1120 h1         1 2S1       0.072700
     74 H16          0.2870    -0.9110     0.3550 h1         1 2S1       0.072700
     75 H17         -4.5940     1.1270    -3.1790 ha         1 2S1       0.112000
     76 H18          3.5150    -1.6800    -1.1490 h1         1 2S1       0.057200
     77 H19          1.9190    -2.3340    -0.8320 h1         1 2S1       0.057200
     78 H20          3.7300    -1.1590     1.3450 hc         1 2S1       0.067700
     79 H21          2.1580    -1.8710     1.5970 hc         1 2S1       0.067700
     80 H22         -2.1270     1.7400    -1.2100 hn         1 2S1       0.321500
     81 H23         -6.2230     4.1090     2.0360 ha         1 2S1       0.134000
     82 H24         -7.9810    -0.6880    -1.2340 ha         1 2S1       0.126000
     83 H25         -7.8710    -3.2400    -2.6730 ha         1 2S1       0.128500
     84 H26        -10.1710    -4.1570    -2.9240 ha         1 2S1       0.114500
     85 H27        -10.5180    -4.4760     1.3710 ha         1 2S1       0.114500
     86 H28         -8.2140    -3.5510     1.6240 ha         1 2S1       0.128500
     87 H29          0.7460     1.2780    -2.1530 ho         1 2S1       0.462000
     88 H30          6.6490    -4.9820     0.6310 ha         1 2S1       0.146000
     89 H31          2.8260    -6.5270     1.8840 ha         1 2S1       0.136000
     90 H32          1.8370    -4.2560     1.7040 ha         1 2S1       0.122000
     91 H33          4.6640     0.3210    -0.2400 hc         1 2S1       0.076700
     92 H34          4.5550     0.1140    -1.9300 hc         1 2S1       0.076700
     93 H35          4.6500     2.6210    -2.2980 h1         1 2S1       0.078700
     94 H36          4.7140     2.8660    -0.5460 h1         1 2S1       0.078700
     95 H37          9.9010     2.1280     1.0250 ha         1 2S1       0.139000
     96 H38         12.0200     1.8010    -0.2840 ha         1 2S1       0.123500
     97 H39         11.9360     1.4720    -2.7560 ha         1 2S1       0.123500
     98 H40          9.7330     1.4650    -3.9620 ha         1 2S1       0.139000
@<TRIPOS>BOND
     1     1     2 1   
     2     1     3 2   
     3     1    21 1   
     4     2     6 ar  
     5     2    22 ar  
     6     4     5 ar  
     7     4    23 ar  
     8     4    25 1   
     9     5     6 ar  
    10     5    26 1   
    11     6    59 1   
    12     7    25 1   
    13     7    60 1   
    14     7    61 1   
    15     7    62 1   
    16     8    26 1   
    17     8    63 1   
    18     8    64 1   
    19     8    65 1   
    20     9    10 ar  
    21     9    12 1   
    22     9    18 ar  
    23    10    27 ar  
    24    10    66 1   
    25    11    18 ar  
    26    11    28 ar  
    27    11    67 1   
    28    12    13 1   
    29    12    68 1   
    30    12    69 1   
    31    13    14 1   
    32    13    21 1   
    33    13    70 1   
    34    14    17 1   
    35    14    34 1   
    36    14    71 1   
    37    15    29 1   
    38    15    30 ar  
    39    15    33 ar  
    40    16    31 ar  
    41    16    32 ar  
    42    16    72 1   
    43    17    35 1   
    44    17    73 1   
    45    17    74 1   
    46    18    75 1   
    47    19    20 1   
    48    19    35 1   
    49    19    76 1   
    50    19    77 1   
    51    20    36 1   
    52    20    78 1   
    53    20    79 1   
    54    21    80 1   
    55    22    23 ar  
    56    22    24 1   
    57    23    81 1   
    58    27    28 ar  
    59    27    29 1   
    60    28    82 1   
    61    30    31 ar  
    62    30    83 1   
    63    31    84 1   
    64    32    33 ar  
    65    32    85 1   
    66    33    86 1   
    67    34    87 1   
    68    35    44 1   
    69    36    37 ar  
    70    36    41 ar  
    71    37    38 ar  
    72    37    42 1   
    73    38    39 ar  
    74    38    88 1   
    75    39    40 ar  
    76    39    43 1   
    77    40    41 ar  
    78    40    89 1   
    79    41    90 1   
    80    44    45 2   
    81    44    46 1   
    82    46    47 1   
    83    46    91 1   
    84    46    92 1   
    85    47    48 1   
    86    47    93 1   
    87    47    94 1   
    88    48    49 1   
    89    48    50 1   
    90    49    52 1   
    91    49    58 2   
    92    50    51 1   
    93    50    57 2   
    94    51    52 ar  
    95    51    56 ar  
    96    52    53 ar  
    97    53    54 ar  
    98    53    95 1   
    99    54    55 ar  
   100    54    96 1   
   101    55    56 ar  
   102    55    97 1   
   103    56    98 1   
@<TRIPOS>SUBSTRUCTURE
     1 2S1         1 TEMP              0 ****  ****    0 ROOT
