@<TRIPOS>MOLECULE
2S1
   98   103     1     0     0
SMALL
bcc


@<TRIPOS>ATOM
      1 C2          -2.7940     0.7850     0.2860 c          1 2S1       0.691700
      2 C3          -3.0200     2.2620     0.3810 ca         1 2S1      -0.129600
      3 O4          -2.9950     0.0410     1.2280 o          1 2S1      -0.577100
      4 C7          -3.2900     5.0340     0.6650 ca         1 2S1       0.127100
      5 C8          -2.0310     4.4770     0.3520 ca         1 2S1       0.123100
      6 C9          -1.9170     3.1080     0.2100 ca         1 2S1      -0.177000
      7 C12         -4.5560     6.9910     1.0800 c3         1 2S1       0.120700
      8 C14          0.2480     4.8510    -0.1500 c3         1 2S1       0.118700
      9 C15         -4.2310    -1.2580    -2.2050 ca         1 2S1      -0.056300
     10 C16         -4.9120    -2.0520    -1.2890 ca         1 2S1      -0.139000
     11 C19         -6.2710    -0.0450    -2.6190 ca         1 2S1      -0.097000
     12 C20         -2.7590    -1.4590    -2.4300 c3         1 2S1      -0.044100
     13 C21         -1.9330    -0.9630    -1.2380 c3         1 2S1       0.081700
     14 C22         -0.4220    -1.0410    -1.5100 c3         1 2S1       0.121100
     15 C24         -8.1710    -2.8940    -0.1250 ca         1 2S1       0.112100
     16 C27        -10.8700    -3.5370    -0.1050 ca         1 2S1      -0.142000
     17 C30          0.3510    -0.8460    -0.2000 c3         1 2S1       0.056000
     18 C32         -4.9230    -0.2530    -2.8730 ca         1 2S1      -0.149000
     19 C34          2.6080    -1.7970    -0.5410 c3         1 2S1       0.105000
     20 C35          3.1020    -2.3360     0.8050 c3         1 2S1      -0.056100
     21 N1          -2.2950     0.3970    -0.9020 ns         1 2S1      -0.572900
     22 C5          -4.2430     2.8230     0.6870 ca         1 2S1       0.022100
     23 C6          -4.3870     4.2020     0.8210 ca         1 2S1      -0.183000
     24 BR          -5.7830     1.7450     0.8520 br         1 2S1      -0.075100
     25 O11         -3.3210     6.3670     0.7850 os         1 2S1      -0.293900
     26 O13         -1.0240     5.3510     0.2150 os         1 2S1      -0.297900
     27 C17         -6.2580    -1.8330    -1.0350 ca         1 2S1       0.134100
     28 C18         -6.9510    -0.8270    -1.6980 ca         1 2S1      -0.184000
     29 O23         -6.8320    -2.6170    -0.0740 os         1 2S1      -0.253200
     30 C25         -8.7630    -3.4130    -1.2720 ca         1 2S1      -0.152000
     31 C26        -10.1130    -3.7280    -1.2550 ca         1 2S1      -0.112000
     32 C28        -10.2640    -3.0270     1.0360 ca         1 2S1      -0.112000
     33 C29         -8.9150    -2.6970     1.0290 ca         1 2S1      -0.152000
     34 O31         -0.0310    -0.1330    -2.5110 oh         1 2S1      -0.598800
     35 N33          1.7690    -0.6210    -0.4000 n          1 2S1      -0.464800
     36 C36          3.9330    -3.5700     0.6160 ca         1 2S1      -0.072300
     37 C37          5.3050    -3.5400     0.3800 ca         1 2S1       0.037400
     38 C38          6.0510    -4.6920     0.1780 ca         1 2S1      -0.114000
     39 C39          5.4010    -5.9150     0.2050 ca         1 2S1       0.034400
     40 C40          4.0370    -5.9950     0.4290 ca         1 2S1      -0.117000
     41 C41          3.3260    -4.8240     0.6300 ca         1 2S1      -0.112000
     42 CL2          6.1510    -2.0250     0.3380 cl         1 2S1      -0.102400
     43 CL1          6.3170    -7.3610    -0.0430 cl         1 2S1      -0.096400
     44 C44          2.2210     0.6430    -0.5240 c          1 2S1       0.688100
     45 O45          1.4640     1.6110    -0.5110 o          1 2S1      -0.641100
     46 C46          3.7120     0.8400    -0.6850 c3         1 2S1      -0.183400
     47 C47          4.1380     2.2540    -0.3070 c3         1 2S1       0.123000
     48 N48          5.5650     2.4240    -0.4810 n          1 2S1      -0.532400
     49 C49          6.5080     1.9870     0.4360 c          1 2S1       0.727600
     50 C50          6.1530     2.9800    -1.6070 c          1 2S1       0.727600
     51 C51          7.6160     2.9150    -1.3770 ca         1 2S1      -0.147600
     52 C52          7.8300     2.3170    -0.1460 ca         1 2S1      -0.147600
     53 C53          9.1000     2.1120     0.3490 ca         1 2S1      -0.063000
     54 C54         10.1660     2.5330    -0.4430 ca         1 2S1      -0.115500
     55 C55          9.9520     3.1340    -1.6800 ca         1 2S1      -0.115500
     56 C56          8.6620     3.3350    -2.1700 ca         1 2S1      -0.063000
     57 O57          5.5620     3.4170    -2.5610 o          1 2S1      -0.559500
     58 O58          6.2610     1.4470     1.4850 o          1 2S1      -0.559500
     59 H1          -0.9560     2.6630    -0.0190 ha         1 2S1       0.162000
     60 H2          -5.3010     6.8050     0.3030 h1         1 2S1       0.043033
     61 H3          -4.9580     6.6640     2.0420 h1         1 2S1       0.043033
     62 H4          -4.3560     8.0590     1.1270 h1         1 2S1       0.043033
     63 H5           0.9020     5.7130    -0.2440 h1         1 2S1       0.047033
     64 H6           0.6560     4.1760     0.6070 h1         1 2S1       0.047033
     65 H7           0.2180     4.3240    -1.1070 h1         1 2S1       0.047033
     66 H8          -4.3930    -2.8440    -0.7610 ha         1 2S1       0.145000
     67 H9          -6.8040     0.7430    -3.1350 ha         1 2S1       0.132000
     68 H10         -2.5330    -2.5180    -2.5810 hc         1 2S1       0.059700
     69 H11         -2.4450    -0.9360    -3.3370 hc         1 2S1       0.059700
     70 H12         -2.1630    -1.5850    -0.3710 h1         1 2S1       0.086700
     71 H13         -0.2040    -2.0390    -1.9060 h1         1 2S1       0.068700
     72 H14        -11.9220    -3.7860    -0.0970 ha         1 2S1       0.133000
     73 H15         -0.0560    -0.0100     0.3660 h1         1 2S1       0.072700
     74 H16          0.2250    -1.7360     0.4200 h1         1 2S1       0.072700
     75 H17         -4.4070     0.3720    -3.5920 ha         1 2S1       0.130000
     76 H18          3.4440    -1.5870    -1.2080 h1         1 2S1       0.057200
     77 H19          2.0220    -2.5690    -1.0440 h1         1 2S1       0.057200
     78 H20          3.6620    -1.5640     1.3360 hc         1 2S1       0.067700
     79 H21          2.2430    -2.5820     1.4330 hc         1 2S1       0.067700
     80 H22         -2.3020     1.0730    -1.6510 hn         1 2S1       0.321500
     81 H23         -5.3590     4.6180     1.0460 ha         1 2S1       0.152000
     82 H24         -7.9980    -0.6430    -1.4980 ha         1 2S1       0.144000
     83 H25         -8.1770    -3.5720    -2.1690 ha         1 2S1       0.146500
     84 H26        -10.5740    -4.1300    -2.1470 ha         1 2S1       0.132500
     85 H27        -10.8440    -2.8750     1.9370 ha         1 2S1       0.132500
     86 H28         -8.4410    -2.2950     1.9150 ha         1 2S1       0.146500
     87 H29          0.0540     0.7450    -2.1200 ho         1 2S1       0.423000
     88 H30          7.1160    -4.6350     0.0060 ha         1 2S1       0.164000
     89 H31          3.5330    -6.9510     0.4520 ha         1 2S1       0.154000
     90 H32          2.2590    -4.8840     0.8080 ha         1 2S1       0.140000
     91 H33          4.2700     0.1240    -0.0830 hc         1 2S1       0.076700
     92 H34          3.9770     0.6400    -1.7290 hc         1 2S1       0.076700
     93 H35          3.6340     2.9980    -0.9190 h1         1 2S1       0.078700
     94 H36          3.8920     2.4680     0.7320 h1         1 2S1       0.078700
     95 H37          9.2690     1.6450     1.3100 ha         1 2S1       0.157000
     96 H38         11.1790     2.3920    -0.0910 ha         1 2S1       0.141500
     97 H39         10.8020     3.4470    -2.2710 ha         1 2S1       0.141500
     98 H40          8.4950     3.8030    -3.1310 ha         1 2S1       0.157000
@<TRIPOS>BOND
     1     1     2 1   
     2     1     3 2   
     3     1    21 1   
     4     2     6 ar  
     5     2    22 ar  
     6     4     5 ar  
     7     4    23 ar  
     8     4    25 1   
     9     5     6 ar  
    10     5    26 1   
    11     6    59 1   
    12     7    25 1   
    13     7    60 1   
    14     7    61 1   
    15     7    62 1   
    16     8    26 1   
    17     8    63 1   
    18     8    64 1   
    19     8    65 1   
    20     9    10 ar  
    21     9    12 1   
    22     9    18 ar  
    23    10    27 ar  
    24    10    66 1   
    25    11    18 ar  
    26    11    28 ar  
    27    11    67 1   
    28    12    13 1   
    29    12    68 1   
    30    12    69 1   
    31    13    14 1   
    32    13    21 1   
    33    13    70 1   
    34    14    17 1   
    35    14    34 1   
    36    14    71 1   
    37    15    29 1   
    38    15    30 ar  
    39    15    33 ar  
    40    16    31 ar  
    41    16    32 ar  
    42    16    72 1   
    43    17    35 1   
    44    17    73 1   
    45    17    74 1   
    46    18    75 1   
    47    19    20 1   
    48    19    35 1   
    49    19    76 1   
    50    19    77 1   
    51    20    36 1   
    52    20    78 1   
    53    20    79 1   
    54    21    80 1   
    55    22    23 ar  
    56    22    24 1   
    57    23    81 1   
    58    27    28 ar  
    59    27    29 1   
    60    28    82 1   
    61    30    31 ar  
    62    30    83 1   
    63    31    84 1   
    64    32    33 ar  
    65    32    85 1   
    66    33    86 1   
    67    34    87 1   
    68    35    44 1   
    69    36    37 ar  
    70    36    41 ar  
    71    37    38 ar  
    72    37    42 1   
    73    38    39 ar  
    74    38    88 1   
    75    39    40 ar  
    76    39    43 1   
    77    40    41 ar  
    78    40    89 1   
    79    41    90 1   
    80    44    45 2   
    81    44    46 1   
    82    46    47 1   
    83    46    91 1   
    84    46    92 1   
    85    47    48 1   
    86    47    93 1   
    87    47    94 1   
    88    48    49 1   
    89    48    50 1   
    90    49    52 1   
    91    49    58 2   
    92    50    51 1   
    93    50    57 2   
    94    51    52 ar  
    95    51    56 ar  
    96    52    53 ar  
    97    53    54 ar  
    98    53    95 1   
    99    54    55 ar  
   100    54    96 1   
   101    55    56 ar  
   102    55    97 1   
   103    56    98 1   
@<TRIPOS>SUBSTRUCTURE
     1 2S1         1 TEMP              0 ****  ****    0 ROOT
