@<TRIPOS>MOLECULE
2S2
   33    34     1     0     0
SMALL
abcg2


@<TRIPOS>ATOM
      1 OAC         -1.2920    -2.0160    -1.9340 o          1 2S2      -0.731000
      2 CAN         -1.3600    -1.6990    -0.7290 c          1 2S2       0.722000
      3 OAB         -1.7340    -2.4370     0.2050 o          1 2S2      -0.731000
      4 CAR         -0.8160    -0.2940    -0.3350 c3         1 2S2      -0.134500
      5 CAL         -1.7770     0.4320     0.6160 c3         1 2S2      -0.043400
      6 CAK         -3.1500     0.7200    -0.0010 c3         1 2S2      -0.077400
      7 CAJ         -4.0610     1.5840     0.8750 c3         1 2S2      -0.076400
      8 CAI         -5.4070     1.8780     0.2320 c3         1 2S2      -0.083100
      9 CAO          0.5580    -0.4310     0.2510 cc         1 2S2      -0.059400
     10 CAQ          1.7370     0.2800    -0.1400 ca         1 2S2      -0.095800
     11 CAG          2.0080     1.2380    -1.1260 ca         1 2S2      -0.044000
     12 CAE          3.2890     1.7340    -1.2600 ca         1 2S2      -0.172000
     13 CAD          4.3330     1.2970    -0.4290 ca         1 2S2      -0.110000
     14 CAF          4.1030     0.3570     0.5630 ca         1 2S2      -0.147000
     15 CAP          2.8060    -0.1520     0.6920 ca         1 2S2      -0.061200
     16 NM           2.2930    -1.0620     1.5500 na         1 2S2      -0.235700
     17 CAH          0.9570    -1.2320     1.2880 cd         1 2S2      -0.162100
     18 HAR         -0.7200     0.3110    -1.2420 hc         1 2S2       0.040700
     19 HAL         -1.9120    -0.1350     1.5420 hc         1 2S2       0.019200
     20 HALA        -1.3110     1.3800     0.9180 hc         1 2S2       0.019200
     21 HAK         -2.9150     1.2490    -0.9350 hc         1 2S2       0.047700
     22 HAKA        -3.6520    -0.2160    -0.2470 hc         1 2S2       0.047700
     23 HAJ         -4.2170     1.0460     1.8170 hc         1 2S2       0.027700
     24 HAJA        -3.5420     2.5190     1.1160 hc         1 2S2       0.027700
     25 HAI         -5.2760     2.4410    -0.6950 hc         1 2S2       0.022033
     26 HAIA        -5.9380     0.9570    -0.0150 hc         1 2S2       0.022033
     27 HAIB        -6.0400     2.4840     0.8830 hc         1 2S2       0.022033
     28 HAG          1.2200     1.6000    -1.7770 ha         1 2S2       0.114000
     29 HAE          3.4980     2.4940    -2.0070 ha         1 2S2       0.091000
     30 HAD          5.3300     1.6980    -0.5580 ha         1 2S2       0.089000
     31 HAF          4.9010     0.0210     1.2120 ha         1 2S2       0.093000
     32 HAH          0.3870    -1.9360     1.8720 h4         1 2S2       0.230000
     33 HNM          2.8060    -1.5400     2.2710 hn         1 2S2       0.331000
@<TRIPOS>BOND
     1     1     2 1   
     2     2     3 1   
     3     2     4 1   
     4     4     5 1   
     5     4     9 1   
     6     4    18 1   
     7     5     6 1   
     8     5    19 1   
     9     5    20 1   
    10     6     7 1   
    11     6    21 1   
    12     6    22 1   
    13     7     8 1   
    14     7    23 1   
    15     7    24 1   
    16     8    25 1   
    17     8    26 1   
    18     8    27 1   
    19     9    10 1   
    20     9    17 2   
    21    10    11 ar  
    22    10    15 ar  
    23    11    12 ar  
    24    11    28 1   
    25    12    13 ar  
    26    12    29 1   
    27    13    14 ar  
    28    13    30 1   
    29    14    15 ar  
    30    14    31 1   
    31    15    16 1   
    32    16    17 1   
    33    16    33 1   
    34    17    32 1   
@<TRIPOS>SUBSTRUCTURE
     1 2S2         1 TEMP              0 ****  ****    0 ROOT
