@<TRIPOS>MOLECULE
2S2
   33    34     1     0     0
SMALL
No Charge or Current Charge


@<TRIPOS>ATOM
      1 OAC         -1.8440    -2.4640    -1.4610 o          1 2S2      -0.731000
      2 CAN         -1.5640    -2.0150    -0.3570 c          1 2S2       0.722000
      3 OAB         -1.8240    -2.6010     0.6850 o          1 2S2      -0.731000
      4 CAR         -0.8220    -0.6530    -0.2900 c3         1 2S2      -0.134500
      5 CAL         -1.6310     0.4180     0.4910 c3         1 2S2      -0.043400
      6 CAK         -3.0270     0.7170    -0.1060 c3         1 2S2      -0.077400
      7 CAJ         -3.7870     1.8220     0.6600 c3         1 2S2      -0.076400
      8 CAI         -5.1770     2.1220     0.0670 c3         1 2S2      -0.083100
      9 CAO          0.6020    -0.7430     0.2200 cc         1 2S2      -0.059400
     10 CAQ          1.6550     0.2050    -0.0330 ca         1 2S2      -0.095800
     11 CAG          1.6500     1.3880    -0.7880 ca         1 2S2      -0.044000
     12 CAE          2.8480     2.1300    -0.8640 ca         1 2S2      -0.172000
     13 CAD          4.0100     1.6810    -0.1940 ca         1 2S2      -0.110000
     14 CAF          3.9810     0.4860     0.5550 ca         1 2S2      -0.147000
     15 CAP          2.7780    -0.2300     0.6130 ca         1 2S2      -0.061200
     16 NM           2.5300    -1.4130     1.2820 na         1 2S2      -0.235700
     17 CAH          1.1700    -1.7230     1.0320 cd         1 2S2      -0.162100
     18 HAR         -0.7450    -0.2980    -1.3250 hc         1 2S2       0.040700
     19 HAL         -1.7440     0.0970     1.5340 hc         1 2S2       0.019200
     20 HALA        -1.0560     1.3520     0.5140 hc         1 2S2       0.019200
     21 HAK         -2.9120     1.0210    -1.1540 hc         1 2S2       0.047700
     22 HAKA        -3.6310    -0.1980    -0.1020 hc         1 2S2       0.047700
     23 HAJ         -3.9040     1.5210     1.7090 hc         1 2S2       0.027700
     24 HAJA        -3.1910     2.7430     0.6560 hc         1 2S2       0.027700
     25 HAI         -5.0900     2.4590    -0.9730 hc         1 2S2       0.022033
     26 HAIA        -5.8100     1.2270     0.0900 hc         1 2S2       0.022033
     27 HAIB        -5.6750     2.9100     0.6430 hc         1 2S2       0.022033
     28 HAG          0.7510     1.7250    -1.3000 ha         1 2S2       0.114000
     29 HAE          2.8770     3.0520    -1.4400 ha         1 2S2       0.091000
     30 HAD          4.9290     2.2580    -0.2570 ha         1 2S2       0.089000
     31 HAF          4.8690     0.1320     1.0730 ha         1 2S2       0.093000
     32 HAH          0.7040    -2.6100     1.4530 h4         1 2S2       0.230000
     33 HNM          3.1880    -1.9480     1.8410 hn         1 2S2       0.331000
@<TRIPOS>BOND
     1     1     2 1   
     2     2     3 1   
     3     2     4 1   
     4     4     5 1   
     5     4     9 1   
     6     4    18 1   
     7     5     6 1   
     8     5    19 1   
     9     5    20 1   
    10     6     7 1   
    11     6    21 1   
    12     6    22 1   
    13     7     8 1   
    14     7    23 1   
    15     7    24 1   
    16     8    25 1   
    17     8    26 1   
    18     8    27 1   
    19     9    10 1   
    20     9    17 2   
    21    10    11 ar  
    22    10    15 ar  
    23    11    12 ar  
    24    11    28 1   
    25    12    13 ar  
    26    12    29 1   
    27    13    14 ar  
    28    13    30 1   
    29    14    15 ar  
    30    14    31 1   
    31    15    16 1   
    32    16    17 1   
    33    16    33 1   
    34    17    32 1   
@<TRIPOS>SUBSTRUCTURE
     1 2S2         1 TEMP              0 ****  ****    0 ROOT
