@<TRIPOS>MOLECULE
2S3
   30    31     1     0     0
SMALL
bcc


@<TRIPOS>ATOM
      1 OAC          1.7610     1.8310    -1.7710 o          1 2S3      -0.837300
      2 CAM          1.8560     1.3710    -0.6160 c          1 2S3       0.933600
      3 OAB          2.4010     1.9270     0.3600 o          1 2S3      -0.837300
      4 CAQ          1.2030    -0.0060    -0.3490 c3         1 2S3      -0.136500
      5 CAK          2.1200    -0.9350     0.4510 c3         1 2S3      -0.042400
      6 CAJ          3.4220    -1.2730    -0.2660 c3         1 2S3      -0.074400
      7 CAI          4.2900    -2.2400     0.5280 c3         1 2S3      -0.084100
      8 CAN         -0.1110     0.1980     0.3460 cc         1 2S3      -0.065400
      9 CAP         -1.4050    -0.1970    -0.1250 ca         1 2S3      -0.090800
     10 CAG         -1.8590    -0.8400    -1.2840 ca         1 2S3      -0.060000
     11 CAE         -3.2120    -1.0740    -1.4370 ca         1 2S3      -0.189000
     12 CAD         -4.1310    -0.6790    -0.4500 ca         1 2S3      -0.129000
     13 CAF         -3.7150    -0.0450     0.7050 ca         1 2S3      -0.163000
     14 CAO         -2.3490     0.1900     0.8550 ca         1 2S3      -0.058200
     15 NL          -1.6570     0.7860     1.8660 na         1 2S3      -0.190400
     16 CAH         -0.3220     0.7940     1.5590 cd         1 2S3      -0.114100
     17 HAQ          1.0000    -0.4800    -1.3150 hc         1 2S3       0.039700
     18 HAK          2.3440    -0.4710     1.4150 hc         1 2S3       0.021200
     19 HAKA         1.5820    -1.8630     0.6730 hc         1 2S3       0.021200
     20 HAJ          3.1960    -1.7040    -1.2460 hc         1 2S3       0.045700
     21 HAJA         3.9840    -0.3550    -0.4560 hc         1 2S3       0.045700
     22 HAI          4.5560    -1.8210     1.5000 hc         1 2S3       0.015033
     23 HAIA         3.7680    -3.1820     0.7100 hc         1 2S3       0.015033
     24 HAIB         5.2180    -2.4730     0.0050 hc         1 2S3       0.015033
     25 HAG         -1.1590    -1.1470    -2.0520 ha         1 2S3       0.135000
     26 HAE         -3.5740    -1.5650    -2.3310 ha         1 2S3       0.110000
     27 HAD         -5.1850    -0.8760    -0.5990 ha         1 2S3       0.105000
     28 HAF         -4.4260     0.2580     1.4640 ha         1 2S3       0.111000
     29 HNL         -2.0580     1.1790     2.7000 hn         1 2S3       0.279700
     30 HAH          0.3910     1.2350     2.2370 h4         1 2S3       0.178000
@<TRIPOS>BOND
     1     1     2 1   
     2     2     3 1   
     3     2     4 1   
     4     4     5 1   
     5     4     8 1   
     6     4    17 1   
     7     5     6 1   
     8     5    18 1   
     9     5    19 1   
    10     6     7 1   
    11     6    20 1   
    12     6    21 1   
    13     7    22 1   
    14     7    23 1   
    15     7    24 1   
    16     8     9 1   
    17     8    16 2   
    18     9    10 ar  
    19     9    14 ar  
    20    10    11 ar  
    21    10    25 1   
    22    11    12 ar  
    23    11    26 1   
    24    12    13 ar  
    25    12    27 1   
    26    13    14 ar  
    27    13    28 1   
    28    14    15 1   
    29    15    16 1   
    30    15    29 1   
    31    16    30 1   
@<TRIPOS>SUBSTRUCTURE
     1 2S3         1 TEMP              0 ****  ****    0 ROOT
