@<TRIPOS>MOLECULE
2S3
   30    31     1     0     0
SMALL
No Charge or Current Charge


@<TRIPOS>ATOM
      1 OAC          2.5230     2.2310    -1.0960 o          1 2S3      -0.732000
      2 CAM          2.2090     1.6250    -0.0800 c          1 2S3       0.723000
      3 OAB          2.5870     1.9580     1.0360 o          1 2S3      -0.732000
      4 CAQ          1.2690     0.3970    -0.2230 c3         1 2S3      -0.136500
      5 CAK          1.9280    -0.9080     0.3020 c3         1 2S3      -0.042400
      6 CAJ          3.2440    -1.2850    -0.4170 c3         1 2S3      -0.074400
      7 CAI          3.8470    -2.6100     0.0880 c3         1 2S3      -0.084100
      8 CAN         -0.1100     0.5930     0.3750 cc         1 2S3      -0.065400
      9 CAP         -1.3010    -0.1270     0.0120 ca         1 2S3      -0.090800
     10 CAG         -1.4980    -1.1330    -0.9460 ca         1 2S3      -0.042000
     11 CAE         -2.7970    -1.6660    -1.0890 ca         1 2S3      -0.171000
     12 CAD         -3.8570    -1.1890    -0.2840 ca         1 2S3      -0.111000
     13 CAF         -3.6250    -0.1760     0.6700 ca         1 2S3      -0.145000
     14 CAO         -2.3260     0.3350     0.7900 ca         1 2S3      -0.058200
     15 NL          -1.8820     1.3210     1.6490 na         1 2S3      -0.240700
     16 CAH         -0.4980     1.4730     1.3840 cd         1 2S3      -0.164100
     17 HAQ          1.1100     0.2610    -1.2990 hc         1 2S3       0.039700
     18 HAK          2.1170    -0.8110     1.3780 hc         1 2S3       0.021200
     19 HAKA         1.2180    -1.7360     0.1840 hc         1 2S3       0.021200
     20 HAJ          3.0590    -1.3670    -1.4950 hc         1 2S3       0.045700
     21 HAJA         3.9840    -0.4870    -0.2790 hc         1 2S3       0.045700
     22 HAI          4.0750    -2.5490     1.1590 hc         1 2S3       0.015033
     23 HAIA         3.1490    -3.4400    -0.0720 hc         1 2S3       0.015033
     24 HAIB         4.7770    -2.8350    -0.4480 hc         1 2S3       0.015033
     25 HAG         -0.6760    -1.4920    -1.5610 ha         1 2S3       0.117000
     26 HAE         -2.9820    -2.4470    -1.8220 ha         1 2S3       0.092000
     27 HAD         -4.8560    -1.6050    -0.4000 ha         1 2S3       0.087000
     28 HAF         -4.4340     0.1980     1.2930 ha         1 2S3       0.093000
     29 HNL         -2.4340     1.8290     2.3340 hn         1 2S3       0.330000
     30 HAH          0.1090     2.1880     1.9340 h4         1 2S3       0.228000
@<TRIPOS>BOND
     1     1     2 1   
     2     2     3 1   
     3     2     4 1   
     4     4     5 1   
     5     4     8 1   
     6     4    17 1   
     7     5     6 1   
     8     5    18 1   
     9     5    19 1   
    10     6     7 1   
    11     6    20 1   
    12     6    21 1   
    13     7    22 1   
    14     7    23 1   
    15     7    24 1   
    16     8     9 1   
    17     8    16 2   
    18     9    10 ar  
    19     9    14 ar  
    20    10    11 ar  
    21    10    25 1   
    22    11    12 ar  
    23    11    26 1   
    24    12    13 ar  
    25    12    27 1   
    26    13    14 ar  
    27    13    28 1   
    28    14    15 1   
    29    15    16 1   
    30    15    29 1   
    31    16    30 1   
@<TRIPOS>SUBSTRUCTURE
     1 2S3         1 TEMP              0 ****  ****    0 ROOT
