@<TRIPOS>MOLECULE
2S4
   48    49     1     0     0
SMALL
abcg2


@<TRIPOS>ATOM
      1 C1          -3.3010     0.3970    -0.5970 ca         1 2S4      -0.157000
      2 C2          -2.9200    -0.9490    -0.5760 ca         1 2S4      -0.071300
      3 C3          -4.6310     0.7650    -0.4990 ca         1 2S4       0.114100
      4 C8          -4.1400     3.0800    -0.6000 c3         1 2S4       0.145900
      5 C10         -7.9290    -0.7360    -0.2090 c3         1 2S4       0.145900
      6 C11         -1.4690    -1.3070    -0.6760 c3         1 2S4      -0.112100
      7 C12         -0.7170    -1.0870     0.6280 c          1 2S4       0.612100
      8 C14          1.6320    -0.8660     1.4160 c2         1 2S4       0.672800
      9 C19          5.1380     0.1550     0.7670 ca         1 2S4      -0.114300
     10 C20          6.7120    -0.5680    -0.9140 ca         1 2S4      -0.114500
     11 C21          7.3160     0.6920    -0.9370 ca         1 2S4      -0.064300
     12 C22          5.6420    -0.8320    -0.0780 ca         1 2S4      -0.089500
     13 C24          5.7310     1.4090     0.7470 ca         1 2S4      -0.089500
     14 O15         -1.2720    -1.0120     1.7000 o          1 2S4      -0.515100
     15 C4          -3.8960    -1.9160    -0.4570 ca         1 2S4      -0.087000
     16 C6          -5.2430    -1.5620    -0.3610 ca         1 2S4      -0.170000
     17 C5          -5.6230    -0.2320    -0.3810 ca         1 2S4       0.118100
     18 O9          -6.8900     0.2160    -0.3000 os         1 2S4      -0.321100
     19 O7          -5.0840     2.0330    -0.5100 os         1 2S4      -0.322100
     20 N13          0.6340    -1.0040     0.4440 ns         1 2S4      -0.459400
     21 N17          1.4400    -1.2390     2.6160 n2         1 2S4      -0.825100
     22 N16          2.7790    -0.3660     0.8620 nu         1 2S4      -0.964400
     23 C18          3.9630    -0.1330     1.6610 c3         1 2S4       0.264100
     24 C23          6.8070     1.6730    -0.0950 ca         1 2S4      -0.114500
     25 C25          8.4880     0.9600    -1.8350 c3         1 2S4      -0.049800
     26 H1          -2.5310     1.1520    -0.6910 ha         1 2S4       0.115000
     27 H2          -3.4420     3.0750     0.2420 h1         1 2S4       0.038700
     28 H3          -3.5690     3.0400    -1.5310 h1         1 2S4       0.038700
     29 H4          -4.7050     4.0080    -0.5790 h1         1 2S4       0.038700
     30 H5          -7.9570    -1.3970    -1.0800 h1         1 2S4       0.039367
     31 H6          -7.8490    -1.3480     0.6940 h1         1 2S4       0.039367
     32 H7          -8.8600    -0.1750    -0.1680 h1         1 2S4       0.039367
     33 H8          -1.3550    -2.3650    -0.9340 hc         1 2S4       0.062200
     34 H9          -0.9860    -0.7480    -1.4820 hc         1 2S4       0.062200
     35 H10          7.0890    -1.3520    -1.5610 ha         1 2S4       0.114000
     36 H11          5.1920    -1.8190    -0.0800 ha         1 2S4       0.116500
     37 H12          5.3520     2.1930     1.3920 ha         1 2S4       0.116500
     38 H13         -3.6270    -2.9650    -0.4410 ha         1 2S4       0.114000
     39 H14         -5.9820    -2.3470    -0.2760 ha         1 2S4       0.120000
     40 H15          0.9550    -1.0250    -0.5130 hn         1 2S4       0.315500
     41 H16          2.2310    -1.0090     3.2040 hn         1 2S4       0.386400
     42 H17          2.6650     0.2550     0.0740 hn         1 2S4       0.473000
     43 H18          4.1630    -1.0310     2.2510 h1         1 2S4       0.046200
     44 H19          3.8240     0.6900     2.3710 h1         1 2S4       0.046200
     45 H20          7.2500     2.6620    -0.0950 ha         1 2S4       0.114000
     46 H21          8.2900     0.6330    -2.8570 hc         1 2S4       0.044700
     47 H22          8.7360     2.0210    -1.8630 hc         1 2S4       0.044700
     48 H23          9.3750     0.4230    -1.4930 hc         1 2S4       0.044700
@<TRIPOS>BOND
     1     1     2 ar  
     2     1     3 ar  
     3     1    26 1   
     4     2     6 1   
     5     2    15 ar  
     6     3    17 ar  
     7     3    19 1   
     8     4    19 1   
     9     4    27 1   
    10     4    28 1   
    11     4    29 1   
    12     5    18 1   
    13     5    30 1   
    14     5    31 1   
    15     5    32 1   
    16     6     7 1   
    17     6    33 1   
    18     6    34 1   
    19     7    14 2   
    20     7    20 1   
    21     8    20 1   
    22     8    21 2   
    23     8    22 1   
    24     9    12 ar  
    25     9    13 ar  
    26     9    23 1   
    27    10    11 ar  
    28    10    12 ar  
    29    10    35 1   
    30    11    24 ar  
    31    11    25 1   
    32    12    36 1   
    33    13    24 ar  
    34    13    37 1   
    35    15    16 ar  
    36    15    38 1   
    37    16    17 ar  
    38    16    39 1   
    39    17    18 1   
    40    20    40 1   
    41    21    41 1   
    42    22    23 1   
    43    22    42 1   
    44    23    43 1   
    45    23    44 1   
    46    24    45 1   
    47    25    46 1   
    48    25    47 1   
    49    25    48 1   
@<TRIPOS>SUBSTRUCTURE
     1 2S4         1 TEMP              0 ****  ****    0 ROOT
