@<TRIPOS>MOLECULE
2S4
   48    49     1     0     0
SMALL
No Charge or Current Charge


@<TRIPOS>ATOM
      1 C1          -2.8690     0.1440    -0.8370 ca         1 2S4      -0.157000
      2 C2          -2.7900    -1.2620    -0.8210 ca         1 2S4      -0.071300
      3 C3          -4.0840     0.7980    -0.5280 ca         1 2S4       0.114100
      4 C8          -3.0840     3.0400    -0.8530 c3         1 2S4       0.145900
      5 C10         -7.6190    -0.0030     0.4450 c3         1 2S4       0.145900
      6 C11         -1.4750    -1.9610    -1.1500 c3         1 2S4      -0.112100
      7 C12         -0.6290    -2.1520     0.1150 c          1 2S4       0.612100
      8 C14          1.2740    -1.1590     1.2940 c2         1 2S4       0.672800
      9 C19          4.7560     0.1560     0.8340 ca         1 2S4      -0.114300
     10 C20          6.7940    -0.3400    -0.4140 ca         1 2S4      -0.114500
     11 C21          6.9020     1.0100    -0.7980 ca         1 2S4      -0.064300
     12 C22          5.7270    -0.7650     0.3960 ca         1 2S4      -0.089500
     13 C24          4.8650     1.5070     0.4500 ca         1 2S4      -0.089500
     14 O15         -0.8700    -3.0350     0.9270 o          1 2S4      -0.515100
     15 C4          -3.9290    -2.0170    -0.4920 ca         1 2S4      -0.087000
     16 C6          -5.1420    -1.3790    -0.1840 ca         1 2S4      -0.170000
     17 C5          -5.2290     0.0310    -0.1990 ca         1 2S4       0.118100
     18 O9          -6.4090     0.6940     0.1000 os         1 2S4      -0.321100
     19 O7          -4.1920     2.1800    -0.5350 os         1 2S4      -0.322100
     20 N13          0.4090    -1.2670     0.2500 ns         1 2S4      -0.459400
     21 N17          0.9870    -1.2120     2.5190 n2         1 2S4      -0.825100
     22 N16          2.4490    -0.6420     0.8650 nu         1 2S4      -0.964400
     23 C18          3.6000    -0.3020     1.7100 c3         1 2S4       0.264100
     24 C23          5.9330     1.9310    -0.3600 ca         1 2S4      -0.114500
     25 C25          8.0590     1.4700    -1.6710 c3         1 2S4      -0.049800
     26 H1          -1.9790     0.7120    -1.0910 ha         1 2S4       0.115000
     27 H2          -2.2590     2.8910    -0.1450 h1         1 2S4       0.038700
     28 H3          -2.7180     2.8470    -1.8690 h1         1 2S4       0.038700
     29 H4          -3.3930     4.0920    -0.7970 h1         1 2S4       0.038700
     30 H5          -7.9400    -0.6580    -0.3750 h1         1 2S4       0.039367
     31 H6          -7.4760    -0.6100     1.3480 h1         1 2S4       0.039367
     32 H7          -8.4260     0.7140     0.6420 h1         1 2S4       0.039367
     33 H8          -1.6830    -2.9460    -1.5840 hc         1 2S4       0.062200
     34 H9          -0.9230    -1.3580    -1.8810 hc         1 2S4       0.062200
     35 H10          7.5380    -1.0620    -0.7440 ha         1 2S4       0.114000
     36 H11          5.6540    -1.8120     0.6830 ha         1 2S4       0.116500
     37 H12          4.1190     2.2280     0.7790 ha         1 2S4       0.116500
     38 H13         -3.8760    -3.1040    -0.4730 ha         1 2S4       0.114000
     39 H14         -6.0010    -1.9960     0.0650 ha         1 2S4       0.120000
     40 H15          0.5290    -0.6030    -0.4960 hn         1 2S4       0.315500
     41 H16          1.8340    -0.9410     3.0270 hn         1 2S4       0.386400
     42 H17          2.6540    -0.7870    -0.1190 hn         1 2S4       0.473000
     43 H18          3.9130    -1.1760     2.2980 h1         1 2S4       0.046200
     44 H19          3.3340     0.5000     2.4140 h1         1 2S4       0.046200
     45 H20          6.0050     2.9780    -0.6470 ha         1 2S4       0.114000
     46 H21          8.4000     0.6690    -2.3390 hc         1 2S4       0.044700
     47 H22          7.7720     2.3210    -2.3000 hc         1 2S4       0.044700
     48 H23          8.9130     1.7800    -1.0570 hc         1 2S4       0.044700
@<TRIPOS>BOND
     1     1     2 ar  
     2     1     3 ar  
     3     1    26 1   
     4     2     6 1   
     5     2    15 ar  
     6     3    17 ar  
     7     3    19 1   
     8     4    19 1   
     9     4    27 1   
    10     4    28 1   
    11     4    29 1   
    12     5    18 1   
    13     5    30 1   
    14     5    31 1   
    15     5    32 1   
    16     6     7 1   
    17     6    33 1   
    18     6    34 1   
    19     7    14 2   
    20     7    20 1   
    21     8    20 1   
    22     8    21 2   
    23     8    22 1   
    24     9    12 ar  
    25     9    13 ar  
    26     9    23 1   
    27    10    11 ar  
    28    10    12 ar  
    29    10    35 1   
    30    11    24 ar  
    31    11    25 1   
    32    12    36 1   
    33    13    24 ar  
    34    13    37 1   
    35    15    16 ar  
    36    15    38 1   
    37    16    17 ar  
    38    16    39 1   
    39    17    18 1   
    40    20    40 1   
    41    21    41 1   
    42    22    23 1   
    43    22    42 1   
    44    23    43 1   
    45    23    44 1   
    46    24    45 1   
    47    25    46 1   
    48    25    47 1   
    49    25    48 1   
@<TRIPOS>SUBSTRUCTURE
     1 2S4         1 TEMP              0 ****  ****    0 ROOT
