@<TRIPOS>MOLECULE
2S6
   65    68     1     0     0
SMALL
abcg2


@<TRIPOS>ATOM
      1 CAK         -7.0170     1.1430    -0.8720 ca         1 2S6      -0.185000
      2 CAI         -8.3750     1.1080    -0.6540 ca         1 2S6      -0.030500
      3 CAY         -8.9340     0.0910     0.1280 ca         1 2S6      -0.067000
      4 CAC        -10.3380     0.0540     0.3570 cg         1 2S6       0.331000
      5 NAA        -11.4750     0.0300     0.5490 n1         1 2S6      -0.462000
      6 CAJ         -8.1070    -0.8840     0.6810 ca         1 2S6      -0.030500
      7 CAL         -6.7410    -0.8530     0.4650 ca         1 2S6      -0.185000
      8 CAZ         -6.1850     0.1640    -0.3140 ca         1 2S6       0.176100
      9 OAX         -4.8820     0.2820    -0.5780 os         1 2S6      -0.343100
     10 CAP         -3.9620    -0.6460    -0.0120 c3         1 2S6       0.164600
     11 CAO         -2.5690    -0.2360    -0.4400 c3         1 2S6      -0.085400
     12 CAU         -1.5230    -1.1380     0.2040 c3         1 2S6       0.172800
     13 NBD         -0.1740    -0.8650    -0.2530 n3         1 2S6      -0.715600
     14 CAW          0.3310     0.4100     0.2190 c6         1 2S6       0.166300
     15 CAT          1.7040     0.7100    -0.3640 c6         1 2S6      -0.074400
     16 CAV          0.7320    -1.9340     0.1280 c6         1 2S6       0.166300
     17 CAS          2.1270    -1.7320    -0.4430 c6         1 2S6      -0.074400
     18 CBC          2.7120    -0.3870    -0.0140 c6         1 2S6      -0.083700
     19 CBE          4.1240    -0.1070    -0.5940 c3         1 2S6       0.252300
     20 CBB          5.1020    -1.2500    -0.2560 c5         1 2S6      -0.055700
     21 CAQ          5.2830    -1.5940     1.2230 c5         1 2S6      -0.074900
     22 CAM          6.4940    -2.5410     1.2410 c5         1 2S6      -0.079900
     23 CAN          7.2800    -2.2420    -0.0570 c5         1 2S6      -0.079900
     24 CAR          6.5480    -1.0680    -0.7190 c5         1 2S6      -0.074900
     25 OAB          4.0660    -0.1040    -2.0100 oh         1 2S6      -0.658000
     26 CBA          4.6690     1.2290    -0.0880 ca         1 2S6      -0.109300
     27 CAG          4.4810     1.6590     1.2270 ca         1 2S6      -0.103500
     28 CAE          5.0090     2.8620     1.6750 ca         1 2S6      -0.113000
     29 CAD          5.7380     3.6720     0.8150 ca         1 2S6      -0.107000
     30 CAF          5.9320     3.2600    -0.4950 ca         1 2S6      -0.113000
     31 CAH          5.4040     2.0550    -0.9390 ca         1 2S6      -0.103500
     32 H1          -6.5820     1.9300    -1.4740 ha         1 2S6       0.128000
     33 H2          -9.0080     1.8700    -1.0890 ha         1 2S6       0.125000
     34 H3          -8.5310    -1.6750     1.2840 ha         1 2S6       0.125000
     35 H4          -6.1300    -1.6270     0.9080 ha         1 2S6       0.128000
     36 H5          -4.0450    -0.6350     1.0800 h1         1 2S6       0.037200
     37 H6          -4.1910    -1.6600    -0.3550 h1         1 2S6       0.037200
     38 H7          -2.4780    -0.2990    -1.5280 hc         1 2S6       0.065200
     39 H8          -2.4110     0.8060    -0.1570 hc         1 2S6       0.065200
     40 H9          -1.6030    -1.0670     1.3040 h1         1 2S6       0.029200
     41 H10         -1.7540    -2.1760    -0.0520 h1         1 2S6       0.029200
     42 H12         -0.3540     1.2070    -0.0740 h1         1 2S6       0.029950
     43 H13          0.3880     0.4330     1.3230 h1         1 2S6       0.029950
     44 H14          1.5940     0.8010    -1.4500 hc         1 2S6       0.053200
     45 H15          2.0360     1.6810     0.0060 hc         1 2S6       0.053200
     46 H16          0.8020    -2.0290     1.2270 h1         1 2S6       0.029950
     47 H17          0.3280    -2.8810    -0.2400 h1         1 2S6       0.029950
     48 H18          2.7470    -2.5610    -0.0940 hc         1 2S6       0.053200
     49 H19          2.0880    -1.7960    -1.5330 hc         1 2S6       0.053200
     50 H20          2.8000    -0.4140     1.0780 hc         1 2S6       0.050700
     51 H21          4.7210    -2.1450    -0.7640 hc         1 2S6       0.060700
     52 H22          5.5120    -0.6860     1.7860 hc         1 2S6       0.046950
     53 H23          4.3980    -2.0420     1.6780 hc         1 2S6       0.046950
     54 H24          7.1030    -2.3930     2.1340 hc         1 2S6       0.039950
     55 H25          6.1640    -3.5810     1.2580 hc         1 2S6       0.039950
     56 H26          8.3290    -2.0130     0.1340 hc         1 2S6       0.039950
     57 H27          7.2640    -3.1120    -0.7170 hc         1 2S6       0.039950
     58 H28          6.6590    -1.0630    -1.8030 hc         1 2S6       0.046950
     59 H29          6.9460    -0.1200    -0.3460 hc         1 2S6       0.046950
     60 H30          3.4910     0.6130    -2.2960 ho         1 2S6       0.447000
     61 H31          3.9050     1.0640     1.9230 ha         1 2S6       0.116500
     62 H32          4.8440     3.1670     2.7000 ha         1 2S6       0.112500
     63 H33          6.1480     4.6120     1.1620 ha         1 2S6       0.113000
     64 H34          6.5010     3.8770    -1.1800 ha         1 2S6       0.112500
     65 H35          5.5800     1.7540    -1.9620 ha         1 2S6       0.116500
@<TRIPOS>BOND
     1     1     2 ar  
     2     1     8 ar  
     3     1    32 1   
     4     2     3 ar  
     5     2    33 1   
     6     3     4 1   
     7     3     6 ar  
     8     4     5 3   
     9     6     7 ar  
    10     6    34 1   
    11     7     8 ar  
    12     7    35 1   
    13     8     9 1   
    14     9    10 1   
    15    10    11 1   
    16    10    36 1   
    17    10    37 1   
    18    11    12 1   
    19    11    38 1   
    20    11    39 1   
    21    12    13 1   
    22    12    40 1   
    23    12    41 1   
    24    13    14 1   
    25    13    16 1   
    26    14    15 1   
    27    14    42 1   
    28    14    43 1   
    29    15    18 1   
    30    15    44 1   
    31    15    45 1   
    32    16    17 1   
    33    16    46 1   
    34    16    47 1   
    35    17    18 1   
    36    17    48 1   
    37    17    49 1   
    38    18    19 1   
    39    18    50 1   
    40    19    20 1   
    41    19    25 1   
    42    19    26 1   
    43    20    21 1   
    44    20    24 1   
    45    20    51 1   
    46    21    22 1   
    47    21    52 1   
    48    21    53 1   
    49    22    23 1   
    50    22    54 1   
    51    22    55 1   
    52    23    24 1   
    53    23    56 1   
    54    23    57 1   
    55    24    58 1   
    56    24    59 1   
    57    25    60 1   
    58    26    27 ar  
    59    26    31 ar  
    60    27    28 ar  
    61    27    61 1   
    62    28    29 ar  
    63    28    62 1   
    64    29    30 ar  
    65    29    63 1   
    66    30    31 ar  
    67    30    64 1   
    68    31    65 1   
@<TRIPOS>SUBSTRUCTURE
     1 2S6         1 TEMP              0 ****  ****    0 ROOT
