@<TRIPOS>MOLECULE
2S6
   65    68     1     0     0
SMALL
No Charge or Current Charge


@<TRIPOS>ATOM
      1 CAK         -7.1710     1.2300    -0.8000 ca         1 2S6      -0.185000
      2 CAI         -8.5700     1.1780    -0.6620 ca         1 2S6      -0.030500
      3 CAY         -9.1690     0.1100     0.0320 ca         1 2S6      -0.067000
      4 CAC        -10.5970     0.0530     0.1750 cg         1 2S6       0.331000
      5 NAA        -11.7570     0.0060     0.3010 n1         1 2S6      -0.462000
      6 CAJ         -8.3620    -0.9040     0.5840 ca         1 2S6      -0.030500
      7 CAL         -6.9630    -0.8500     0.4450 ca         1 2S6      -0.185000
      8 CAZ         -6.3630     0.2220    -0.2510 ca         1 2S6       0.176100
      9 OAX         -4.9980     0.3290    -0.4200 os         1 2S6      -0.343100
     10 CAP         -4.0830    -0.6490     0.1030 c3         1 2S6       0.164600
     11 CAO         -2.6600    -0.2040    -0.2740 c3         1 2S6      -0.085400
     12 CAU         -1.5830    -1.1820     0.2440 c3         1 2S6       0.172800
     13 NBD         -0.2050    -0.9010    -0.2310 n3         1 2S6      -0.715600
     14 CAW          0.3380     0.4050     0.2400 c6         1 2S6       0.166300
     15 CAT          1.7330     0.6970    -0.3610 c6         1 2S6      -0.074400
     16 CAV          0.7260    -2.0120     0.1070 c6         1 2S6       0.166300
     17 CAS          2.1360    -1.7940    -0.4930 c6         1 2S6      -0.074400
     18 CBC          2.7530    -0.4380    -0.0280 c6         1 2S6      -0.083700
     19 CBE          4.2140    -0.1580    -0.5860 c3         1 2S6       0.252300
     20 CBB          5.2540    -1.2850    -0.2330 c5         1 2S6      -0.055700
     21 CAQ          5.4860    -1.5810     1.2760 c5         1 2S6      -0.074900
     22 CAM          6.6400    -2.6240     1.2310 c5         1 2S6      -0.079900
     23 CAN          7.4550    -2.2640    -0.0540 c5         1 2S6      -0.079900
     24 CAR          6.7320    -1.0220    -0.6450 c5         1 2S6      -0.074900
     25 OAB          4.1170    -0.1530    -2.0180 oh         1 2S6      -0.658000
     26 CBA          4.7500     1.2340    -0.1300 ca         1 2S6      -0.109300
     27 CAG          4.5640     1.6900     1.2000 ca         1 2S6      -0.103500
     28 CAE          5.0540     2.9400     1.6150 ca         1 2S6      -0.113000
     29 CAD          5.7500     3.7600     0.7160 ca         1 2S6      -0.107000
     30 CAF          5.9620     3.3220    -0.5990 ca         1 2S6      -0.113000
     31 CAH          5.4730     2.0730    -1.0180 ca         1 2S6      -0.103500
     32 H1          -6.7110     2.0560    -1.3360 ha         1 2S6       0.128000
     33 H2          -9.1830     1.9670    -1.0930 ha         1 2S6       0.125000
     34 H3          -8.8170    -1.7340     1.1220 ha         1 2S6       0.125000
     35 H4          -6.3660    -1.6450     0.8810 ha         1 2S6       0.128000
     36 H5          -4.1690    -0.7150     1.1960 h1         1 2S6       0.037200
     37 H6          -4.2850    -1.6380    -0.3270 h1         1 2S6       0.037200
     38 H7          -2.5830    -0.1310    -1.3650 hc         1 2S6       0.065200
     39 H8          -2.4860     0.7960     0.1380 hc         1 2S6       0.065200
     40 H9          -1.6070    -1.1840     1.3420 h1         1 2S6       0.029200
     41 H10         -1.8720    -2.1900    -0.0830 h1         1 2S6       0.029200
     42 H12         -0.3280     1.2310    -0.0460 h1         1 2S6       0.029950
     43 H13          0.4100     0.4130     1.3380 h1         1 2S6       0.029950
     44 H14          1.6300     0.8120    -1.4480 hc         1 2S6       0.053200
     45 H15          2.0820     1.6640     0.0210 hc         1 2S6       0.053200
     46 H16          0.8150    -2.1120     1.2000 h1         1 2S6       0.029950
     47 H17          0.3320    -2.9660    -0.2720 h1         1 2S6       0.029950
     48 H18          2.7700    -2.6350    -0.1870 hc         1 2S6       0.053200
     49 H19          2.0700    -1.8320    -1.5890 hc         1 2S6       0.053200
     50 H20          2.8390    -0.4990     1.0630 hc         1 2S6       0.050700
     51 H21          4.9050    -2.1930    -0.7380 hc         1 2S6       0.060700
     52 H22          5.7920    -0.6860     1.8300 hc         1 2S6       0.046950
     53 H23          4.5960    -1.9820     1.7730 hc         1 2S6       0.046950
     54 H24          7.2560    -2.5820     2.1360 hc         1 2S6       0.039950
     55 H25          6.2450    -3.6440     1.1640 hc         1 2S6       0.039950
     56 H26          8.5070    -2.0510     0.1700 hc         1 2S6       0.039950
     57 H27          7.4450    -3.0990    -0.7640 hc         1 2S6       0.039950
     58 H28          6.8600    -0.9490    -1.7310 hc         1 2S6       0.046950
     59 H29          7.1270    -0.0970    -0.2090 hc         1 2S6       0.046950
     60 H30          3.5280     0.5950    -2.2450 ho         1 2S6       0.447000
     61 H31          4.0430     1.0800     1.9320 ha         1 2S6       0.116500
     62 H32          4.8970     3.2710     2.6390 ha         1 2S6       0.112500
     63 H33          6.1310     4.7260     1.0390 ha         1 2S6       0.113000
     64 H34          6.5130     3.9500    -1.2970 ha         1 2S6       0.112500
     65 H35          5.6770     1.7630    -2.0390 ha         1 2S6       0.116500
@<TRIPOS>BOND
     1     1     2 ar  
     2     1     8 ar  
     3     1    32 1   
     4     2     3 ar  
     5     2    33 1   
     6     3     4 1   
     7     3     6 ar  
     8     4     5 3   
     9     6     7 ar  
    10     6    34 1   
    11     7     8 ar  
    12     7    35 1   
    13     8     9 1   
    14     9    10 1   
    15    10    11 1   
    16    10    36 1   
    17    10    37 1   
    18    11    12 1   
    19    11    38 1   
    20    11    39 1   
    21    12    13 1   
    22    12    40 1   
    23    12    41 1   
    24    13    14 1   
    25    13    16 1   
    26    14    15 1   
    27    14    42 1   
    28    14    43 1   
    29    15    18 1   
    30    15    44 1   
    31    15    45 1   
    32    16    17 1   
    33    16    46 1   
    34    16    47 1   
    35    17    18 1   
    36    17    48 1   
    37    17    49 1   
    38    18    19 1   
    39    18    50 1   
    40    19    20 1   
    41    19    25 1   
    42    19    26 1   
    43    20    21 1   
    44    20    24 1   
    45    20    51 1   
    46    21    22 1   
    47    21    52 1   
    48    21    53 1   
    49    22    23 1   
    50    22    54 1   
    51    22    55 1   
    52    23    24 1   
    53    23    56 1   
    54    23    57 1   
    55    24    58 1   
    56    24    59 1   
    57    25    60 1   
    58    26    27 ar  
    59    26    31 ar  
    60    27    28 ar  
    61    27    61 1   
    62    28    29 ar  
    63    28    62 1   
    64    29    30 ar  
    65    29    63 1   
    66    30    31 ar  
    67    30    64 1   
    68    31    65 1   
@<TRIPOS>SUBSTRUCTURE
     1 2S6         1 TEMP              0 ****  ****    0 ROOT
