@<TRIPOS>MOLECULE
2S7
   64    67     1     0     0
SMALL
abcg2


@<TRIPOS>ATOM
      1 CAJ         -6.8840     1.2390     0.3060 ca         1 2S7      -0.185000
      2 CAH         -8.2490     1.0880     0.2260 ca         1 2S7      -0.030500
      3 CAY         -8.7970    -0.1350    -0.1740 ca         1 2S7      -0.067000
      4 CAC        -10.2090    -0.2940    -0.2590 cg         1 2S7       0.331000
      5 NAA        -11.3530    -0.4200    -0.3260 n1         1 2S7      -0.462000
      6 CAI         -7.9520    -1.1970    -0.4890 ca         1 2S7      -0.030500
      7 CAK         -6.5790    -1.0510    -0.4090 ca         1 2S7      -0.185000
      8 CAZ         -6.0330     0.1720    -0.0110 ca         1 2S7       0.175100
      9 OAX         -4.7250     0.4120     0.0960 os         1 2S7      -0.342100
     10 CAO         -3.7960    -0.6260    -0.2000 c3         1 2S7       0.163600
     11 CAN         -2.4010    -0.0690    -0.0150 c3         1 2S7      -0.085400
     12 CAT         -1.3540    -1.1410    -0.2930 c3         1 2S7       0.173800
     13 NBD          0.0030    -0.6330    -0.2360 n3         1 2S7      -0.716600
     14 CAV          0.9370    -1.5340    -0.8860 c6         1 2S7       0.167300
     15 CAS          2.3420    -0.9510    -0.9400 c6         1 2S7      -0.073900
     16 CAU          0.4310    -0.3500     1.1210 c6         1 2S7       0.167300
     17 CAR          1.8140     0.2800     1.1400 c6         1 2S7      -0.073900
     18 CBC          2.8420    -0.6350     0.4670 c6         1 2S7      -0.082700
     19 CBE          4.2960    -0.0970     0.5790 c3         1 2S7       0.155700
     20 CBB          5.2770    -0.9260    -0.2620 c5         1 2S7      -0.053700
     21 CAP          6.7470    -0.5090    -0.1370 c5         1 2S7      -0.071900
     22 CAL          7.4850    -1.7130    -0.7090 c5         1 2S7      -0.079400
     23 CAM          6.7410    -2.9060    -0.1020 c5         1 2S7      -0.079400
     24 CAQ          5.2780    -2.4370     0.0550 c5         1 2S7      -0.071900
     25 OAB          4.7190    -0.2070     1.9250 oh         1 2S7      -0.660000
     26 CBA          4.3700     1.3650     0.1460 ca         1 2S7       0.333300
     27 NAW          4.2060     1.6170    -1.1510 nb         1 2S7      -0.677000
     28 CAF          4.2430     2.8730    -1.5750 ca         1 2S7       0.340900
     29 CAD          4.4460     3.9570    -0.7370 ca         1 2S7      -0.165000
     30 CAE          4.6240     3.7000     0.6140 ca         1 2S7      -0.076000
     31 CAG          4.5880     2.3900     1.0630 ca         1 2S7      -0.148000
     32 H1          -6.4580     2.1840     0.6180 ha         1 2S7       0.128000
     33 H2          -8.8960     1.9180     0.4750 ha         1 2S7       0.125000
     34 H3          -8.3670    -2.1460    -0.8010 ha         1 2S7       0.125000
     35 H4          -5.9530    -1.8960    -0.6580 ha         1 2S7       0.128000
     36 H5          -3.9640    -1.4780     0.4690 h1         1 2S7       0.037200
     37 H6          -3.9370    -0.9750    -1.2290 h1         1 2S7       0.037200
     38 H7          -2.2440     0.7680    -0.7000 hc         1 2S7       0.065200
     39 H8          -2.3050     0.3160     1.0030 hc         1 2S7       0.065200
     40 H9          -1.4990    -1.9910     0.3960 h1         1 2S7       0.029700
     41 H10         -1.5220    -1.5310    -1.3010 h1         1 2S7       0.029700
     42 H12          0.9740    -2.5150    -0.3780 h1         1 2S7       0.029700
     43 H13          0.5860    -1.7260    -1.9030 h1         1 2S7       0.029700
     44 H14          2.9910    -1.6760    -1.4330 hc         1 2S7       0.055950
     45 H15          2.3440    -0.0500    -1.5550 hc         1 2S7       0.055950
     46 H16         -0.2740     0.3380     1.5910 h1         1 2S7       0.029700
     47 H17          0.4360    -1.2670     1.7380 h1         1 2S7       0.029700
     48 H18          1.7670     1.2400     0.6200 hc         1 2S7       0.055950
     49 H19          2.0720     0.5020     2.1800 hc         1 2S7       0.055950
     50 H20          2.8480    -1.5830     1.0240 hc         1 2S7       0.048700
     51 H21          4.9950    -0.7880    -1.3090 hc         1 2S7       0.070700
     52 H22          6.9710     0.4210    -0.6630 hc         1 2S7       0.045700
     53 H23          7.0250    -0.3680     0.9110 hc         1 2S7       0.045700
     54 H24          7.3880    -1.7200    -1.7980 hc         1 2S7       0.040200
     55 H25          8.5530    -1.7160    -0.4800 hc         1 2S7       0.040200
     56 H26          6.8290    -3.8070    -0.7110 hc         1 2S7       0.040200
     57 H27          7.1650    -3.1430     0.8760 hc         1 2S7       0.040200
     58 H28          4.9210    -2.6290     1.0670 hc         1 2S7       0.045700
     59 H29          4.6090    -2.9750    -0.6180 hc         1 2S7       0.045700
     60 H30          3.9590    -0.1420     2.5110 ho         1 2S7       0.443000
     61 H31          4.1060     3.0250    -2.6400 h4         1 2S7       0.017100
     62 H32          4.4670     4.9630    -1.1320 ha         1 2S7       0.124000
     63 H33          4.7910     4.5110     1.3120 ha         1 2S7       0.118000
     64 H34          4.7350     2.1760     2.1110 ha         1 2S7       0.130000
@<TRIPOS>BOND
     1     1     2 ar  
     2     1     8 ar  
     3     1    32 1   
     4     2     3 ar  
     5     2    33 1   
     6     3     4 1   
     7     3     6 ar  
     8     4     5 3   
     9     6     7 ar  
    10     6    34 1   
    11     7     8 ar  
    12     7    35 1   
    13     8     9 1   
    14     9    10 1   
    15    10    11 1   
    16    10    36 1   
    17    10    37 1   
    18    11    12 1   
    19    11    38 1   
    20    11    39 1   
    21    12    13 1   
    22    12    40 1   
    23    12    41 1   
    24    13    14 1   
    25    13    16 1   
    26    14    15 1   
    27    14    42 1   
    28    14    43 1   
    29    15    18 1   
    30    15    44 1   
    31    15    45 1   
    32    16    17 1   
    33    16    46 1   
    34    16    47 1   
    35    17    18 1   
    36    17    48 1   
    37    17    49 1   
    38    18    19 1   
    39    18    50 1   
    40    19    20 1   
    41    19    25 1   
    42    19    26 1   
    43    20    21 1   
    44    20    24 1   
    45    20    51 1   
    46    21    22 1   
    47    21    52 1   
    48    21    53 1   
    49    22    23 1   
    50    22    54 1   
    51    22    55 1   
    52    23    24 1   
    53    23    56 1   
    54    23    57 1   
    55    24    58 1   
    56    24    59 1   
    57    25    60 1   
    58    26    27 ar  
    59    26    31 ar  
    60    27    28 ar  
    61    28    29 ar  
    62    28    61 1   
    63    29    30 ar  
    64    29    62 1   
    65    30    31 ar  
    66    30    63 1   
    67    31    64 1   
@<TRIPOS>SUBSTRUCTURE
     1 2S7         1 TEMP              0 ****  ****    0 ROOT
