@<TRIPOS>MOLECULE
2S7
   64    67     1     0     0
SMALL
No Charge or Current Charge


@<TRIPOS>ATOM
      1 CAJ         -7.0630     1.1400     0.6150 ca         1 2S7      -0.185000
      2 CAH         -8.4600     1.0270     0.5110 ca         1 2S7      -0.030500
      3 CAY         -9.0300    -0.0980    -0.1150 ca         1 2S7      -0.067000
      4 CAC        -10.4570    -0.2180    -0.2240 cg         1 2S7       0.331000
      5 NAA        -11.6170    -0.3190    -0.3210 n1         1 2S7      -0.462000
      6 CAI         -8.1940    -1.1060    -0.6340 ca         1 2S7      -0.030500
      7 CAK         -6.7960    -0.9900    -0.5280 ca         1 2S7      -0.185000
      8 CAZ         -6.2260     0.1380     0.0990 ca         1 2S7       0.175100
      9 OAX         -4.8630     0.3070     0.2320 os         1 2S7      -0.342100
     10 CAO         -3.9200    -0.6600    -0.2610 c3         1 2S7       0.163600
     11 CAN         -2.5080    -0.1420     0.0640 c3         1 2S7      -0.085400
     12 CAT         -1.4040    -1.1070    -0.4170 c3         1 2S7       0.173800
     13 NBD         -0.0200    -0.5870    -0.2870 n3         1 2S7      -0.716600
     14 CAV          0.9610    -1.4600    -0.9870 c6         1 2S7       0.167300
     15 CAS          2.3880    -0.8620    -0.9690 c6         1 2S7      -0.073900
     16 CAU          0.3990    -0.3430     1.1240 c6         1 2S7       0.167300
     17 CAR          1.8090     0.2890     1.2000 c6         1 2S7      -0.073900
     18 CBC          2.8750    -0.5970     0.4870 c6         1 2S7      -0.082700
     19 CBE          4.3530    -0.0340     0.6020 c3         1 2S7       0.155700
     20 CBB          5.4350    -0.9710    -0.0650 c5         1 2S7      -0.053700
     21 CAP          6.9220    -0.5570     0.1480 c5         1 2S7      -0.071900
     22 CAL          7.6870    -1.7400    -0.5110 c5         1 2S7      -0.079400
     23 CAM          6.7590    -2.9810    -0.3090 c5         1 2S7      -0.079400
     24 CAQ          5.5230    -2.4340     0.4620 c5         1 2S7      -0.071900
     25 OAB          4.6800    -0.0080     2.0090 oh         1 2S7      -0.660000
     26 CBA          4.4360     1.4230     0.0200 ca         1 2S7       0.333300
     27 NAW          4.6730     1.5670    -1.3150 nb         1 2S7      -0.677000
     28 CAF          4.7370     2.8120    -1.8370 ca         1 2S7       0.340900
     29 CAD          4.5660     3.9720    -1.0680 ca         1 2S7      -0.165000
     30 CAE          4.3160     3.8470     0.3060 ca         1 2S7      -0.076000
     31 CAG          4.2500     2.5550     0.8510 ca         1 2S7      -0.148000
     32 H1          -6.6250     2.0100     1.0980 ha         1 2S7       0.128000
     33 H2          -9.0970     1.8120     0.9150 ha         1 2S7       0.125000
     34 H3          -8.6260    -1.9800    -1.1190 ha         1 2S7       0.125000
     35 H4          -6.1770    -1.7830    -0.9370 ha         1 2S7       0.128000
     36 H5          -4.0740    -1.6330     0.2240 h1         1 2S7       0.037200
     37 H6          -4.0250    -0.7850    -1.3460 h1         1 2S7       0.037200
     38 H7          -2.3650     0.8340    -0.4140 hc         1 2S7       0.065200
     39 H8          -2.4320     0.0060     1.1470 hc         1 2S7       0.065200
     40 H9          -1.5010    -2.0550     0.1310 h1         1 2S7       0.029700
     41 H10         -1.6020    -1.3290    -1.4750 h1         1 2S7       0.029700
     42 H12          0.9840    -2.4560    -0.5170 h1         1 2S7       0.029700
     43 H13          0.6590    -1.6060    -2.0340 h1         1 2S7       0.029700
     44 H14          3.0600    -1.5590    -1.4860 hc         1 2S7       0.055950
     45 H15          2.3890     0.0690    -1.5500 hc         1 2S7       0.055950
     46 H16         -0.3000     0.3400     1.6260 h1         1 2S7       0.029700
     47 H17          0.3950    -1.2860     1.6900 h1         1 2S7       0.029700
     48 H18          1.7700     1.2850     0.7400 hc         1 2S7       0.055950
     49 H19          2.0740     0.4420     2.2550 hc         1 2S7       0.055950
     50 H20          2.8830    -1.5670     1.0040 hc         1 2S7       0.048700
     51 H21          5.2190    -0.9890    -1.1390 hc         1 2S7       0.070700
     52 H22          7.1670     0.4010    -0.3250 hc         1 2S7       0.045700
     53 H23          7.1800    -0.4660     1.2100 hc         1 2S7       0.045700
     54 H24          7.8540    -1.5530    -1.5780 hc         1 2S7       0.040200
     55 H25          8.6740    -1.8840    -0.0570 hc         1 2S7       0.040200
     56 H26          6.4620    -3.4010    -1.2780 hc         1 2S7       0.040200
     57 H27          7.2580    -3.7850     0.2450 hc         1 2S7       0.040200
     58 H28          5.6870    -2.4810     1.5450 hc         1 2S7       0.045700
     59 H29          4.6230    -3.0200     0.2440 hc         1 2S7       0.045700
     60 H30          4.6670    -0.9360     2.3210 ho         1 2S7       0.443000
     61 H31          4.9300     2.8800    -2.9070 h4         1 2S7       0.017100
     62 H32          4.6250     4.9510    -1.5360 ha         1 2S7       0.124000
     63 H33          4.1750     4.7260     0.9320 ha         1 2S7       0.118000
     64 H34          4.0500     2.4340     1.9120 ha         1 2S7       0.130000
@<TRIPOS>BOND
     1     1     2 ar  
     2     1     8 ar  
     3     1    32 1   
     4     2     3 ar  
     5     2    33 1   
     6     3     4 1   
     7     3     6 ar  
     8     4     5 3   
     9     6     7 ar  
    10     6    34 1   
    11     7     8 ar  
    12     7    35 1   
    13     8     9 1   
    14     9    10 1   
    15    10    11 1   
    16    10    36 1   
    17    10    37 1   
    18    11    12 1   
    19    11    38 1   
    20    11    39 1   
    21    12    13 1   
    22    12    40 1   
    23    12    41 1   
    24    13    14 1   
    25    13    16 1   
    26    14    15 1   
    27    14    42 1   
    28    14    43 1   
    29    15    18 1   
    30    15    44 1   
    31    15    45 1   
    32    16    17 1   
    33    16    46 1   
    34    16    47 1   
    35    17    18 1   
    36    17    48 1   
    37    17    49 1   
    38    18    19 1   
    39    18    50 1   
    40    19    20 1   
    41    19    25 1   
    42    19    26 1   
    43    20    21 1   
    44    20    24 1   
    45    20    51 1   
    46    21    22 1   
    47    21    52 1   
    48    21    53 1   
    49    22    23 1   
    50    22    54 1   
    51    22    55 1   
    52    23    24 1   
    53    23    56 1   
    54    23    57 1   
    55    24    58 1   
    56    24    59 1   
    57    25    60 1   
    58    26    27 ar  
    59    26    31 ar  
    60    27    28 ar  
    61    28    29 ar  
    62    28    61 1   
    63    29    30 ar  
    64    29    62 1   
    65    30    31 ar  
    66    30    63 1   
    67    31    64 1   
@<TRIPOS>SUBSTRUCTURE
     1 2S7         1 TEMP              0 ****  ****    0 ROOT
