@<TRIPOS>MOLECULE
2S8
   56    57     1     0     0
SMALL
bcc


@<TRIPOS>ATOM
      1 OAD          4.0310    -3.0330    -1.5460 o          1 2S8      -0.838800
      2 CAU          3.6400    -2.4880    -0.4940 c          1 2S8       0.928600
      3 OAF          3.2390    -3.0700     0.5350 o          1 2S8      -0.838800
      4 CAZ          3.6930    -0.9450    -0.4430 c3         1 2S8      -0.133500
      5 CAW          4.9310    -0.5030     0.2820 cc         1 2S8      -0.073400
      6 CAK          5.5370    -1.1010     1.3520 cd         1 2S8      -0.100100
      7 NAS          6.6280    -0.3720     1.7490 na         1 2S8      -0.191400
      8 CAX          6.7580     0.7190     0.9430 ca         1 2S8      -0.059200
      9 CAI          7.7060     1.7410     0.9460 ca         1 2S8      -0.160000
     10 CAG          7.5800     2.7320    -0.0090 ca         1 2S8      -0.131000
     11 CAH          6.5350     2.7110    -0.9480 ca         1 2S8      -0.187000
     12 CAJ          5.5990     1.6950    -0.9490 ca         1 2S8      -0.067000
     13 CAY          5.7010     0.6750     0.0050 ca         1 2S8      -0.094800
     14 CAQ          2.4440    -0.3260     0.1890 c3         1 2S8      -0.040400
     15 CAO          1.1530    -0.6700    -0.5410 c3         1 2S8      -0.073400
     16 CAM         -0.0690     0.0210     0.0520 c3         1 2S8      -0.072400
     17 CAL         -1.3770    -0.4320    -0.5830 c3         1 2S8      -0.074400
     18 CAN         -2.6000     0.2480     0.0180 c3         1 2S8      -0.095400
     19 CAP         -3.8910    -0.2700    -0.5950 c3         1 2S8       0.117000
     20 NAR         -5.0390     0.3790     0.0000 ns         1 2S8      -0.572900
     21 CAV         -6.2970     0.0020    -0.2900 c          1 2S8       0.761100
     22 OAE         -6.5700    -0.9080    -1.0500 o          1 2S8      -0.605000
     23 OAT         -7.1790     0.7550     0.3730 os         1 2S8      -0.459900
     24 CBA         -8.6130     0.5870     0.2260 c3         1 2S8       0.201800
     25 CAC         -9.0590    -0.7920     0.6990 c3         1 2S8      -0.107433
     26 CAB         -9.1840     1.6550     1.1520 c3         1 2S8      -0.107433
     27 CAA         -9.0530     0.8640    -1.2070 c3         1 2S8      -0.107433
     28 HAZ          3.7640    -0.5780    -1.4740 hc         1 2S8       0.041700
     29 HAK          5.2670    -2.0070     1.8690 h4         1 2S8       0.189000
     30 HAI          8.5130     1.7590     1.6680 ha         1 2S8       0.112000
     31 HAG          8.2990     3.5400    -0.0340 ha         1 2S8       0.106000
     32 HAH          6.4660     3.5050    -1.6810 ha         1 2S8       0.110000
     33 HAJ          4.7980     1.6860    -1.6780 ha         1 2S8       0.132000
     34 HAQ          2.3720    -0.6500     1.2300 hc         1 2S8       0.022200
     35 HAQA         2.5660     0.7630     0.2150 hc         1 2S8       0.022200
     36 HAO          1.2450    -0.4060    -1.6000 hc         1 2S8       0.049200
     37 HAOA         1.0000    -1.7540    -0.5070 hc         1 2S8       0.049200
     38 HAM         -0.1080    -0.1720     1.1290 hc         1 2S8       0.027700
     39 HAMA         0.0350     1.1070    -0.0570 hc         1 2S8       0.027700
     40 HAL         -1.3470    -0.2450    -1.6610 hc         1 2S8       0.043200
     41 HALA        -1.4730    -1.5170    -0.4660 hc         1 2S8       0.043200
     42 HAN         -2.6190     0.0810     1.0990 hc         1 2S8       0.039200
     43 HANA        -2.5290     1.3300    -0.1320 hc         1 2S8       0.039200
     44 HAP         -3.8740    -0.1070    -1.6770 h1         1 2S8       0.050700
     45 HAPA        -3.9580    -1.3500    -0.4400 h1         1 2S8       0.050700
     46 HNAR        -4.8910     1.1730     0.6020 hn         1 2S8       0.322500
     47 HAC         -8.6970    -0.9930     1.7090 hc         1 2S8       0.046811
     48 HACA       -10.1490    -0.8260     0.7280 hc         1 2S8       0.046811
     49 HACB        -8.7180    -1.5870     0.0410 hc         1 2S8       0.046811
     50 HAB         -8.8620     2.6540     0.8540 hc         1 2S8       0.046811
     51 HABA       -10.2730     1.6300     1.1150 hc         1 2S8       0.046811
     52 HABB        -8.8810     1.4890     2.1870 hc         1 2S8       0.046811
     53 HAA         -8.7130     0.0990    -1.9020 hc         1 2S8       0.046811
     54 HAAA       -10.1420     0.8940    -1.2500 hc         1 2S8       0.046811
     55 HAAB        -8.6850     1.8340    -1.5480 hc         1 2S8       0.046811
     56 HNAS         7.2490    -0.6280     2.4960 hn         1 2S8       0.281700
@<TRIPOS>BOND
     1     1     2 1   
     2     2     3 1   
     3     2     4 1   
     4     4     5 1   
     5     4    14 1   
     6     4    28 1   
     7     5     6 2   
     8     5    13 1   
     9     6     7 1   
    10     6    29 1   
    11     7     8 1   
    12     7    56 1   
    13     8     9 ar  
    14     8    13 ar  
    15     9    10 ar  
    16     9    30 1   
    17    10    11 ar  
    18    10    31 1   
    19    11    12 ar  
    20    11    32 1   
    21    12    13 ar  
    22    12    33 1   
    23    14    15 1   
    24    14    34 1   
    25    14    35 1   
    26    15    16 1   
    27    15    36 1   
    28    15    37 1   
    29    16    17 1   
    30    16    38 1   
    31    16    39 1   
    32    17    18 1   
    33    17    40 1   
    34    17    41 1   
    35    18    19 1   
    36    18    42 1   
    37    18    43 1   
    38    19    20 1   
    39    19    44 1   
    40    19    45 1   
    41    20    21 1   
    42    20    46 1   
    43    21    22 2   
    44    21    23 1   
    45    23    24 1   
    46    24    25 1   
    47    24    26 1   
    48    24    27 1   
    49    25    47 1   
    50    25    48 1   
    51    25    49 1   
    52    26    50 1   
    53    26    51 1   
    54    26    52 1   
    55    27    53 1   
    56    27    54 1   
    57    27    55 1   
@<TRIPOS>SUBSTRUCTURE
     1 2S8         1 TEMP              0 ****  ****    0 ROOT
