@<TRIPOS>MOLECULE
2S8
   56    57     1     0     0
SMALL
No Charge or Current Charge


@<TRIPOS>ATOM
      1 OAD          3.8800    -3.3180    -1.3490 o          1 2S8      -0.733500
      2 CAU          3.8120    -2.7270    -0.2800 c          1 2S8       0.718000
      3 OAF          3.7490    -3.3040     0.7970 o          1 2S8      -0.733500
      4 CAZ          3.8370    -1.1740    -0.3020 c3         1 2S8      -0.133500
      5 CAW          5.0830    -0.5600     0.3030 cc         1 2S8      -0.073400
      6 CAK          5.9510    -1.1130     1.2440 cd         1 2S8      -0.150100
      7 NAS          6.9840    -0.1910     1.5460 na         1 2S8      -0.241700
      8 CAX          6.7290     0.9290     0.7790 ca         1 2S8      -0.059200
      9 CAI          7.4680     2.1180     0.7260 ca         1 2S8      -0.142000
     10 CAG          7.0220     3.1420    -0.1350 ca         1 2S8      -0.113000
     11 CAH          5.8580     2.9580    -0.9190 ca         1 2S8      -0.169000
     12 CAJ          5.1330     1.7500    -0.8450 ca         1 2S8      -0.049000
     13 CAY          5.6040     0.7520     0.0230 ca         1 2S8      -0.094800
     14 CAQ          2.5520    -0.5600     0.3180 c3         1 2S8      -0.040400
     15 CAO          1.2440    -0.9790    -0.3920 c3         1 2S8      -0.073400
     16 CAM         -0.0110    -0.3110     0.2120 c3         1 2S8      -0.072400
     17 CAL         -1.3190    -0.7270    -0.4960 c3         1 2S8      -0.074400
     18 CAN         -2.5720    -0.0570     0.1090 c3         1 2S8      -0.095400
     19 CAP         -3.8750    -0.4740    -0.6010 c3         1 2S8       0.117000
     20 NAR         -5.0410     0.1750    -0.0080 ns         1 2S8      -0.505900
     21 CAV         -6.3220     0.0030    -0.4430 c          1 2S8       0.645100
     22 OAE         -6.6450    -0.7120    -1.3770 o          1 2S8      -0.556000
     23 OAT         -7.1430     0.7630     0.3450 os         1 2S8      -0.483100
     24 CBA         -8.5770     0.8130     0.1560 c3         1 2S8       0.225000
     25 CAC         -9.1830    -0.5970     0.3800 c3         1 2S8      -0.107433
     26 CAB         -9.0730     1.7790     1.2550 c3         1 2S8      -0.107433
     27 CAA         -8.8990     1.3970    -1.2450 c3         1 2S8      -0.107433
     28 HAZ          3.8460    -0.8860    -1.3600 hc         1 2S8       0.041700
     29 HAK          5.9040    -2.0890     1.7210 h4         1 2S8       0.239000
     30 HAI          8.3620     2.2500     1.3320 ha         1 2S8       0.094000
     31 HAG          7.5750     4.0770    -0.1980 ha         1 2S8       0.088000
     32 HAH          5.5200     3.7510    -1.5810 ha         1 2S8       0.092000
     33 HAJ          4.2380     1.5980    -1.4430 ha         1 2S8       0.114000
     34 HAQ          2.4940    -0.8350     1.3780 hc         1 2S8       0.022200
     35 HAQA         2.6290     0.5340     0.2850 hc         1 2S8       0.022200
     36 HAO          1.3120    -0.7190    -1.4560 hc         1 2S8       0.049200
     37 HAOA         1.1280    -2.0690    -0.3350 hc         1 2S8       0.049200
     38 HAM         -0.0790    -0.5710     1.2760 hc         1 2S8       0.027700
     39 HAMA         0.0980     0.7790     0.1540 hc         1 2S8       0.027700
     40 HAL         -1.2500    -0.4680    -1.5600 hc         1 2S8       0.043200
     41 HALA        -1.4300    -1.8170    -0.4380 hc         1 2S8       0.043200
     42 HAN         -2.6430    -0.3180     1.1720 hc         1 2S8       0.039200
     43 HANA        -2.4640     1.0330     0.0490 hc         1 2S8       0.039200
     44 HAP         -3.8200    -0.2010    -1.6630 h1         1 2S8       0.050700
     45 HAPA        -4.0020    -1.5630    -0.5300 h1         1 2S8       0.050700
     46 HNAR        -4.9190     0.7980     0.7780 hn         1 2S8       0.322500
     47 HAC         -8.7990    -1.0430     1.3050 hc         1 2S8       0.046811
     48 HACA       -10.2750    -0.5340     0.4620 hc         1 2S8       0.046811
     49 HACB        -8.9610    -1.2750    -0.4510 hc         1 2S8       0.046811
     50 HAB         -8.6200     2.7710     1.1360 hc         1 2S8       0.046811
     51 HABA       -10.1630     1.8970     1.2080 hc         1 2S8       0.046811
     52 HABB        -8.8150     1.4020     2.2520 hc         1 2S8       0.046811
     53 HAA         -8.6810     0.6830    -2.0460 hc         1 2S8       0.046811
     54 HAAA        -9.9630     1.6500    -1.3170 hc         1 2S8       0.046811
     55 HAAB        -8.3210     2.3100    -1.4280 hc         1 2S8       0.046811
     56 HNAS         7.7530    -0.3240     2.1960 hn         1 2S8       0.332000
@<TRIPOS>BOND
     1     1     2 1   
     2     2     3 1   
     3     2     4 1   
     4     4     5 1   
     5     4    14 1   
     6     4    28 1   
     7     5     6 2   
     8     5    13 1   
     9     6     7 1   
    10     6    29 1   
    11     7     8 1   
    12     7    56 1   
    13     8     9 ar  
    14     8    13 ar  
    15     9    10 ar  
    16     9    30 1   
    17    10    11 ar  
    18    10    31 1   
    19    11    12 ar  
    20    11    32 1   
    21    12    13 ar  
    22    12    33 1   
    23    14    15 1   
    24    14    34 1   
    25    14    35 1   
    26    15    16 1   
    27    15    36 1   
    28    15    37 1   
    29    16    17 1   
    30    16    38 1   
    31    16    39 1   
    32    17    18 1   
    33    17    40 1   
    34    17    41 1   
    35    18    19 1   
    36    18    42 1   
    37    18    43 1   
    38    19    20 1   
    39    19    44 1   
    40    19    45 1   
    41    20    21 1   
    42    20    46 1   
    43    21    22 2   
    44    21    23 1   
    45    23    24 1   
    46    24    25 1   
    47    24    26 1   
    48    24    27 1   
    49    25    47 1   
    50    25    48 1   
    51    25    49 1   
    52    26    50 1   
    53    26    51 1   
    54    26    52 1   
    55    27    53 1   
    56    27    54 1   
    57    27    55 1   
@<TRIPOS>SUBSTRUCTURE
     1 2S8         1 TEMP              0 ****  ****    0 ROOT
