@<TRIPOS>MOLECULE
2S9
   65    68     1     0     0
SMALL
No Charge or Current Charge


@<TRIPOS>ATOM
      1 CAL         -4.4700     1.6080    -0.7760 ca         1 2S9      -0.147000
      2 CAY         -4.5780     2.9930    -0.9700 ca         1 2S9       0.169000
      3 FAC         -4.7570     3.4820    -2.2170 f          1 2S9      -0.182000
      4 CAF         -4.4990     3.8740     0.1150 ca         1 2S9      -0.150000
      5 CAE         -4.3050     3.3620     1.4060 ca         1 2S9      -0.086000
      6 CAI         -4.1960     1.9750     1.6060 ca         1 2S9      -0.118000
      7 CBB         -4.2820     1.0640     0.5200 ca         1 2S9      -0.068300
      8 CBF         -4.1530    -0.4760     0.7330 c3         1 2S9       0.251300
      9 CBC         -5.2210    -1.2640    -0.1220 c5         1 2S9      -0.053700
     10 CAQ         -6.7100    -0.8950     0.1440 c5         1 2S9      -0.073900
     11 CAM         -7.4630    -1.9270    -0.7430 c5         1 2S9      -0.079900
     12 CAN         -6.5460    -3.1930    -0.7500 c5         1 2S9      -0.079900
     13 CAR         -5.3130    -2.8000     0.1160 c5         1 2S9      -0.073900
     14 OAB         -4.4670    -0.7750     2.1030 oh         1 2S9      -0.656000
     15 CBD         -2.6630    -0.9540     0.4880 c6         1 2S9      -0.090700
     16 CAT         -2.1880    -0.8730    -0.9940 c6         1 2S9      -0.074900
     17 CAW         -0.7460    -1.4110    -1.1550 c6         1 2S9       0.164300
     18 CAS         -1.6100    -0.2140     1.3720 c6         1 2S9      -0.074900
     19 CAV         -0.1820    -0.7660     1.1420 c6         1 2S9       0.164300
     20 NBE          0.2200    -0.6800    -0.2920 n3         1 2S9      -0.710600
     21 CAU          1.6160    -1.1120    -0.5470 c3         1 2S9       0.169800
     22 CAO          2.6990    -0.2390     0.1230 c3         1 2S9      -0.084400
     23 CAP          4.1200    -0.6240    -0.3220 c3         1 2S9       0.163600
     24 OAX          5.0410     0.2420     0.3620 os         1 2S9      -0.342100
     25 CBA          6.4050     0.1540     0.1800 ca         1 2S9       0.175100
     26 CAJ          7.2200     1.0460     0.8950 ca         1 2S9      -0.184000
     27 CAG          8.6180     1.0070     0.7530 ca         1 2S9      -0.030500
     28 CAZ          9.2120     0.0670    -0.1100 ca         1 2S9      -0.066000
     29 CAD         10.6400     0.0230    -0.2570 cg         1 2S9       0.331000
     30 NAA         11.8010    -0.0210    -0.3730 n1         1 2S9      -0.461000
     31 CAH          8.3990    -0.8310    -0.8290 ca         1 2S9      -0.030500
     32 CAK          7.0000    -0.7890    -0.6860 ca         1 2S9      -0.184000
     33 H1          -4.5250     0.9700    -1.6510 ha         1 2S9       0.130000
     34 H2          -4.5830     4.9460    -0.0460 ha         1 2S9       0.133000
     35 H3          -4.2380     4.0410     2.2540 ha         1 2S9       0.117000
     36 H4          -4.0400     1.6240     2.6230 ha         1 2S9       0.118000
     37 H5          -4.9910    -1.0870    -1.1760 hc         1 2S9       0.049700
     38 H6          -6.9820    -1.0100     1.2000 hc         1 2S9       0.049700
     39 H7          -6.9480     0.1370    -0.1380 hc         1 2S9       0.049700
     40 H8          -8.4630    -2.1420    -0.3520 hc         1 2S9       0.039950
     41 H9          -7.5970    -1.5430    -1.7620 hc         1 2S9       0.039950
     42 H10         -7.0560    -4.0740    -0.3450 hc         1 2S9       0.039950
     43 H11         -6.2430    -3.4440    -1.7730 hc         1 2S9       0.039950
     44 H12         -4.4100    -3.3320    -0.2010 hc         1 2S9       0.049700
     45 H13         -5.4800    -3.0470     1.1710 hc         1 2S9       0.049700
     46 H14         -3.7320    -0.4190     2.6400 ho         1 2S9       0.443000
     47 H15         -2.6420    -2.0140     0.7760 hc         1 2S9       0.055700
     48 H16         -2.8450    -1.4570    -1.6510 hc         1 2S9       0.052450
     49 H17         -2.2180     0.1640    -1.3520 hc         1 2S9       0.052450
     50 H18         -0.7340    -2.4840    -0.9150 h1         1 2S9       0.031950
     51 H19         -0.4560    -1.3150    -2.2120 h1         1 2S9       0.031950
     52 H20         -1.6100     0.8610     1.1460 hc         1 2S9       0.052450
     53 H21         -1.8530    -0.3110     2.4380 hc         1 2S9       0.052450
     54 H22          0.5040    -0.1890     1.7750 h1         1 2S9       0.031950
     55 H23         -0.1400    -1.8100     1.4860 h1         1 2S9       0.031950
     56 H25          1.7520    -2.1530    -0.2220 h1         1 2S9       0.030200
     57 H26          1.8020    -1.0900    -1.6300 h1         1 2S9       0.030200
     58 H27          2.5170     0.8130    -0.1270 hc         1 2S9       0.065700
     59 H28          2.6370    -0.3360     1.2130 hc         1 2S9       0.065700
     60 H29          4.3120    -1.6740    -0.0650 h1         1 2S9       0.037200
     61 H30          4.2090    -0.5040    -1.4100 h1         1 2S9       0.037200
     62 H31          6.7640     1.7730     1.5620 ha         1 2S9       0.128000
     63 H32          9.2370     1.7060     1.3140 ha         1 2S9       0.125000
     64 H33          8.8490    -1.5610    -1.5000 ha         1 2S9       0.125000
     65 H34          6.3980    -1.4930    -1.2530 ha         1 2S9       0.128000
@<TRIPOS>BOND
     1     1     2 ar  
     2     1     7 ar  
     3     1    33 1   
     4     2     3 1   
     5     2     4 ar  
     6     4     5 ar  
     7     4    34 1   
     8     5     6 ar  
     9     5    35 1   
    10     6     7 ar  
    11     6    36 1   
    12     7     8 1   
    13     8     9 1   
    14     8    14 1   
    15     8    15 1   
    16     9    10 1   
    17     9    13 1   
    18     9    37 1   
    19    10    11 1   
    20    10    38 1   
    21    10    39 1   
    22    11    12 1   
    23    11    40 1   
    24    11    41 1   
    25    12    13 1   
    26    12    42 1   
    27    12    43 1   
    28    13    44 1   
    29    13    45 1   
    30    14    46 1   
    31    15    16 1   
    32    15    18 1   
    33    15    47 1   
    34    16    17 1   
    35    16    48 1   
    36    16    49 1   
    37    17    20 1   
    38    17    50 1   
    39    17    51 1   
    40    18    19 1   
    41    18    52 1   
    42    18    53 1   
    43    19    20 1   
    44    19    54 1   
    45    19    55 1   
    46    20    21 1   
    47    21    22 1   
    48    21    56 1   
    49    21    57 1   
    50    22    23 1   
    51    22    58 1   
    52    22    59 1   
    53    23    24 1   
    54    23    60 1   
    55    23    61 1   
    56    24    25 1   
    57    25    26 ar  
    58    25    32 ar  
    59    26    27 ar  
    60    26    62 1   
    61    27    28 ar  
    62    27    63 1   
    63    28    29 1   
    64    28    31 ar  
    65    29    30 3   
    66    31    32 ar  
    67    31    64 1   
    68    32    65 1   
@<TRIPOS>SUBSTRUCTURE
     1 2S9         1 TEMP              0 ****  ****    0 ROOT
