@<TRIPOS>MOLECULE
2S9
   65    68     1     0     0
SMALL
abcg2


@<TRIPOS>ATOM
      1 CAL         -4.4170     1.6170    -0.7140 ca         1 2S9      -0.147000
      2 CAY         -4.5930     2.9790    -0.8530 ca         1 2S9       0.169000
      3 FAC         -4.7020     3.4850    -2.0950 f          1 2S9      -0.182000
      4 CAF         -4.6630     3.8380     0.2250 ca         1 2S9      -0.150000
      5 CAE         -4.5560     3.2800     1.4900 ca         1 2S9      -0.086000
      6 CAI         -4.3820     1.9130     1.6580 ca         1 2S9      -0.118000
      7 CBB         -4.3020     1.0580     0.5590 ca         1 2S9      -0.068300
      8 CBF         -4.0770    -0.4440     0.7440 c3         1 2S9       0.251300
      9 CBC         -5.0510    -1.2420    -0.1400 c5         1 2S9      -0.053700
     10 CAQ         -6.5350    -1.0170     0.1570 c5         1 2S9      -0.073900
     11 CAM         -7.2170    -2.1180    -0.6530 c5         1 2S9      -0.079900
     12 CAN         -6.2540    -3.3220    -0.5860 c5         1 2S9      -0.079900
     13 CAR         -4.9130    -2.7680    -0.0590 c5         1 2S9      -0.073900
     14 OAB         -4.3780    -0.8140     2.0740 oh         1 2S9      -0.656000
     15 CBD         -2.6020    -0.8250     0.4350 c6         1 2S9      -0.090700
     16 CAT         -2.1690    -0.6790    -1.0210 c6         1 2S9      -0.074900
     17 CAW         -0.7440    -1.1760    -1.2080 c6         1 2S9       0.164300
     18 CAS         -1.5820    -0.0720     1.2920 c6         1 2S9      -0.074900
     19 CAV         -0.1740    -0.5830     1.0300 c6         1 2S9       0.164300
     20 NBE          0.1940    -0.4520    -0.3680 n3         1 2S9      -0.710600
     21 CAU          1.5520    -0.8960    -0.6220 c3         1 2S9       0.169800
     22 CAO          2.6130     0.0200    -0.0220 c3         1 2S9      -0.084400
     23 CAP          3.9980    -0.4810    -0.3720 c3         1 2S9       0.163600
     24 OAX          4.9460     0.4050     0.2130 os         1 2S9      -0.342100
     25 CBA          6.2490     0.1330     0.1100 ca         1 2S9       0.175100
     26 CAJ          7.1180     1.0420     0.7270 ca         1 2S9      -0.184000
     27 CAG          8.4790     0.8450     0.6800 ca         1 2S9      -0.030500
     28 CAZ          9.0030    -0.2680     0.0140 ca         1 2S9      -0.066000
     29 CAD         10.4100    -0.4780    -0.0320 cg         1 2S9       0.331000
     30 NAA         11.5500    -0.6510    -0.0600 n1         1 2S9      -0.461000
     31 CAH          8.1400    -1.1710    -0.6040 ca         1 2S9      -0.030500
     32 CAK          6.7710    -0.9760    -0.5610 ca         1 2S9      -0.184000
     33 H1          -4.3880     1.0080    -1.6070 ha         1 2S9       0.130000
     34 H2          -4.7990     4.9020     0.0820 ha         1 2S9       0.133000
     35 H3          -4.6130     3.9230     2.3590 ha         1 2S9       0.117000
     36 H4          -4.3150     1.5230     2.6630 ha         1 2S9       0.118000
     37 H5          -4.8850    -0.9540    -1.1820 hc         1 2S9       0.049700
     38 H6          -6.7310    -1.1520     1.2240 hc         1 2S9       0.049700
     39 H7          -6.8810    -0.0180    -0.1160 hc         1 2S9       0.049700
     40 H8          -8.2140    -2.3580    -0.2830 hc         1 2S9       0.039950
     41 H9          -7.3360    -1.7880    -1.6880 hc         1 2S9       0.039950
     42 H10         -6.6370    -4.0990     0.0770 hc         1 2S9       0.039950
     43 H11         -6.1370    -3.7830    -1.5680 hc         1 2S9       0.039950
     44 H12         -4.0610    -3.1440    -0.6270 hc         1 2S9       0.049700
     45 H13         -4.7610    -3.0750     0.9780 hc         1 2S9       0.049700
     46 H14         -3.6270    -0.6260     2.6440 ho         1 2S9       0.443000
     47 H15         -2.5170    -1.8890     0.6920 hc         1 2S9       0.055700
     48 H16         -2.8200    -1.2420    -1.6920 hc         1 2S9       0.052450
     49 H17         -2.2150     0.3690    -1.3310 hc         1 2S9       0.052450
     50 H18         -0.7080    -2.2630    -1.0080 h1         1 2S9       0.031950
     51 H19         -0.4510    -1.0420    -2.2520 h1         1 2S9       0.031950
     52 H20         -1.6270     0.9990     1.0770 hc         1 2S9       0.052450
     53 H21         -1.7690    -0.1860     2.3650 hc         1 2S9       0.052450
     54 H22          0.5230    -0.0120     1.6450 h1         1 2S9       0.031950
     55 H23         -0.1010    -1.6350     1.3640 h1         1 2S9       0.031950
     56 H25          1.7100    -1.9290    -0.2640 h1         1 2S9       0.030200
     57 H26          1.6930    -0.9250    -1.7070 h1         1 2S9       0.030200
     58 H27          2.4710     1.0340    -0.4050 hc         1 2S9       0.065700
     59 H28          2.5220     0.0650     1.0650 hc         1 2S9       0.065700
     60 H29          4.1420    -1.4960     0.0150 h1         1 2S9       0.037200
     61 H30          4.1370    -0.5150    -1.4580 h1         1 2S9       0.037200
     62 H31          6.7100     1.9020     1.2420 ha         1 2S9       0.128000
     63 H32          9.1410     1.5520     1.1610 ha         1 2S9       0.125000
     64 H33          8.5370    -2.0340    -1.1210 ha         1 2S9       0.125000
     65 H34          6.1310    -1.6940    -1.0520 ha         1 2S9       0.128000
@<TRIPOS>BOND
     1     1     2 ar  
     2     1     7 ar  
     3     1    33 1   
     4     2     3 1   
     5     2     4 ar  
     6     4     5 ar  
     7     4    34 1   
     8     5     6 ar  
     9     5    35 1   
    10     6     7 ar  
    11     6    36 1   
    12     7     8 1   
    13     8     9 1   
    14     8    14 1   
    15     8    15 1   
    16     9    10 1   
    17     9    13 1   
    18     9    37 1   
    19    10    11 1   
    20    10    38 1   
    21    10    39 1   
    22    11    12 1   
    23    11    40 1   
    24    11    41 1   
    25    12    13 1   
    26    12    42 1   
    27    12    43 1   
    28    13    44 1   
    29    13    45 1   
    30    14    46 1   
    31    15    16 1   
    32    15    18 1   
    33    15    47 1   
    34    16    17 1   
    35    16    48 1   
    36    16    49 1   
    37    17    20 1   
    38    17    50 1   
    39    17    51 1   
    40    18    19 1   
    41    18    52 1   
    42    18    53 1   
    43    19    20 1   
    44    19    54 1   
    45    19    55 1   
    46    20    21 1   
    47    21    22 1   
    48    21    56 1   
    49    21    57 1   
    50    22    23 1   
    51    22    58 1   
    52    22    59 1   
    53    23    24 1   
    54    23    60 1   
    55    23    61 1   
    56    24    25 1   
    57    25    26 ar  
    58    25    32 ar  
    59    26    27 ar  
    60    26    62 1   
    61    27    28 ar  
    62    27    63 1   
    63    28    29 1   
    64    28    31 ar  
    65    29    30 3   
    66    31    32 ar  
    67    31    64 1   
    68    32    65 1   
@<TRIPOS>SUBSTRUCTURE
     1 2S9         1 TEMP              0 ****  ****    0 ROOT
