@<TRIPOS>MOLECULE
2SC
   42    45     1     0     0
SMALL
No Charge or Current Charge


@<TRIPOS>ATOM
      1 C01          1.9870     2.7610    -0.0010 cc         1 2SC      -0.315800
      2 C02          1.6250     1.4550     0.0150 cd         1 2SC       0.449500
      3 N03          0.2570     1.4570     0.0360 na         1 2SC       0.067900
      4 N04         -0.3480     2.7100     0.0400 nd         1 2SC      -0.621100
      5 C05          0.7510     3.4660     0.0170 cc         1 2SC       0.423500
      6 N06          2.5260     0.4180     0.0190 nd         1 2SC      -0.694000
      7 C07          1.8790    -0.7530     0.0420 cc         1 2SC       0.496500
      8 C08          0.4270    -0.8610     0.0640 cc         1 2SC      -0.334000
      9 C09         -0.4090     0.2370     0.0630 cd         1 2SC       0.402000
     10 N10         -1.7800     0.1820     0.0910 nu         1 2SC      -0.958200
     11 C11          2.7400    -1.9730     0.0310 ca         1 2SC      -0.157500
     12 C12         -2.6300    -1.0090     0.0280 c3         1 2SC       0.285100
     13 C13         -4.0840    -0.5870    -0.0180 ca         1 2SC      -0.175300
     14 C14         -4.9060    -0.7480     1.1130 ca         1 2SC       0.352900
     15 N15         -6.2140    -0.3980     1.1350 nb         1 2SC      -0.663000
     16 C16         -6.7440     0.1310     0.0070 ca         1 2SC       0.347900
     17 C17         -5.9980     0.3270    -1.1670 ca         1 2SC      -0.164000
     18 C18         -4.6430    -0.0380    -1.1880 ca         1 2SC      -0.050000
     19 C19          4.1580    -1.8550     0.0890 ca         1 2SC      -0.074500
     20 C20          4.9920    -2.9860     0.0740 ca         1 2SC      -0.122000
     21 C21          4.4390    -4.2700    -0.0040 ca         1 2SC      -0.093000
     22 C22          3.0480    -4.4180    -0.0710 ca         1 2SC      -0.122000
     23 C23          2.2090    -3.2900    -0.0560 ca         1 2SC      -0.074500
     24 C24          3.3390     3.3950    -0.0140 c3         1 2SC       0.256800
     25 O25          3.3370     4.5240    -0.8870 oh         1 2SC      -0.655000
     26 H05          0.6260     4.5410     0.0180 h4         1 2SC       0.044800
     27 H08         -0.0320    -1.8340     0.0960 ha         1 2SC       0.136000
     28 HN10        -2.2300     1.1000     0.0630 hn         1 2SC       0.529000
     29 H121        -2.3940    -1.5990    -0.8700 h1         1 2SC       0.056200
     30 H122        -2.4530    -1.6490     0.9040 h1         1 2SC       0.056200
     31 H14         -4.5080    -1.1720     2.0350 h4         1 2SC       0.020100
     32 H16         -7.7980     0.4060     0.0480 h4         1 2SC       0.023100
     33 H17         -6.4720     0.7550    -2.0460 ha         1 2SC       0.130000
     34 H18         -4.0420     0.1010    -2.0850 ha         1 2SC       0.129000
     35 H19          4.6390    -0.8810     0.1520 ha         1 2SC       0.123000
     36 H20          6.0710    -2.8640     0.1230 ha         1 2SC       0.114000
     37 H21          5.0850    -5.1450    -0.0170 ha         1 2SC       0.113000
     38 H22          2.6140    -5.4130    -0.1380 ha         1 2SC       0.114000
     39 H23          1.1440    -3.4790    -0.1230 ha         1 2SC       0.123000
     40 H241         3.6000     3.7030     1.0070 h1         1 2SC       0.023200
     41 H242         4.0870     2.6630    -0.3460 h1         1 2SC       0.023200
     42 HO25         4.2500     4.8870    -0.8750 ho         1 2SC       0.435000
@<TRIPOS>BOND
     1     1     2 2   
     2     1     5 1   
     3     1    24 1   
     4     2     3 1   
     5     2     6 1   
     6     3     4 1   
     7     3     9 1   
     8     4     5 2   
     9     5    26 1   
    10     6     7 2   
    11     7     8 1   
    12     7    11 1   
    13     8     9 2   
    14     8    27 1   
    15     9    10 1   
    16    10    12 1   
    17    10    28 1   
    18    11    19 ar  
    19    11    23 ar  
    20    12    13 1   
    21    12    29 1   
    22    12    30 1   
    23    13    14 ar  
    24    13    18 ar  
    25    14    15 ar  
    26    14    31 1   
    27    15    16 ar  
    28    16    17 ar  
    29    16    32 1   
    30    17    18 ar  
    31    17    33 1   
    32    18    34 1   
    33    19    20 ar  
    34    19    35 1   
    35    20    21 ar  
    36    20    36 1   
    37    21    22 ar  
    38    21    37 1   
    39    22    23 ar  
    40    22    38 1   
    41    23    39 1   
    42    24    25 1   
    43    24    40 1   
    44    24    41 1   
    45    25    42 1   
@<TRIPOS>SUBSTRUCTURE
     1 2SC         1 TEMP              0 ****  ****    0 ROOT
