@<TRIPOS>MOLECULE
2SC
   42    45     1     0     0
SMALL
bcc


@<TRIPOS>ATOM
      1 C01          1.9210     2.8660     0.0910 cc         1 2SC      -0.315800
      2 C02          1.6280     1.5050     0.0660 cd         1 2SC       0.449500
      3 N03          0.2560     1.4280     0.1620 na         1 2SC       0.017200
      4 N04         -0.3380     2.6240     0.2400 nd         1 2SC      -0.621100
      5 C05          0.6700     3.4820     0.1940 cc         1 2SC       0.423500
      6 N06          2.3980     0.4190    -0.0210 nd         1 2SC      -0.694000
      7 C07          1.7900    -0.7510     0.0110 cc         1 2SC       0.561800
      8 C08          0.3940    -0.8930     0.1360 cc         1 2SC      -0.417300
      9 C09         -0.4030     0.2370     0.2010 cd         1 2SC       0.314300
     10 N10         -1.7320     0.2830     0.2910 nu         1 2SC      -0.764600
     11 C11          2.6580    -1.9480    -0.0740 ca         1 2SC      -0.157500
     12 C12         -2.5560    -0.9000     0.4250 c3         1 2SC       0.285100
     13 C13         -3.9920    -0.5640     0.1480 ca         1 2SC      -0.240600
     14 C14         -4.9590    -0.7010     1.1350 ca         1 2SC       0.418200
     15 N15         -6.2450    -0.4270     0.9540 nb         1 2SC      -0.663000
     16 C16         -6.6230     0.0060    -0.2420 ca         1 2SC       0.413200
     17 C17         -5.7410     0.1850    -1.3000 ca         1 2SC      -0.247300
     18 C18         -4.4030    -0.1070    -1.0990 ca         1 2SC      -0.068000
     19 C19          4.0170    -1.8400     0.2270 ca         1 2SC      -0.092500
     20 C20          4.8480    -2.9460     0.1530 ca         1 2SC      -0.140000
     21 C21          4.3380    -4.1810    -0.2280 ca         1 2SC      -0.111000
     22 C22          2.9900    -4.2980    -0.5380 ca         1 2SC      -0.140000
     23 C23          2.1560    -3.1920    -0.4600 ca         1 2SC      -0.092500
     24 C24          3.2610     3.4960    -0.0170 c3         1 2SC       0.233600
     25 O25          3.6370     3.5720    -1.3810 oh         1 2SC      -0.592800
     26 H05          0.4690     4.5430     0.2430 h4         1 2SC       0.044800
     27 H08         -0.0620    -1.8660     0.2160 ha         1 2SC       0.154000
     28 HN10        -2.1470     1.1810     0.4950 hn         1 2SC       0.473800
     29 H121        -2.2150    -1.6510    -0.2910 h1         1 2SC       0.056200
     30 H122        -2.4570    -1.3380     1.4230 h1         1 2SC       0.056200
     31 H14         -4.6730    -1.0510     2.1230 h4         1 2SC       0.020100
     32 H16         -7.6780     0.2240    -0.3690 h4         1 2SC       0.023100
     33 H17         -6.1010     0.5400    -2.2550 ha         1 2SC       0.148000
     34 H18         -3.6870     0.0150    -1.9030 ha         1 2SC       0.147000
     35 H19          4.4200    -0.8810     0.5250 ha         1 2SC       0.141000
     36 H20          5.8980    -2.8450     0.3970 ha         1 2SC       0.132000
     37 H21          4.9880    -5.0440    -0.2860 ha         1 2SC       0.131000
     38 H22          2.5830    -5.2520    -0.8460 ha         1 2SC       0.132000
     39 H23          1.1140    -3.3090    -0.7240 ha         1 2SC       0.141000
     40 H241         3.2250     4.4910     0.4420 h1         1 2SC       0.023200
     41 H242         3.9860     2.9090     0.5580 h1         1 2SC       0.023200
     42 HO25         4.5110     3.9730    -1.4190 ho         1 2SC       0.396000
@<TRIPOS>BOND
     1     1     2 2   
     2     1     5 1   
     3     1    24 1   
     4     2     3 1   
     5     2     6 1   
     6     3     4 1   
     7     3     9 1   
     8     4     5 2   
     9     5    26 1   
    10     6     7 2   
    11     7     8 1   
    12     7    11 1   
    13     8     9 2   
    14     8    27 1   
    15     9    10 1   
    16    10    12 1   
    17    10    28 1   
    18    11    19 ar  
    19    11    23 ar  
    20    12    13 1   
    21    12    29 1   
    22    12    30 1   
    23    13    14 ar  
    24    13    18 ar  
    25    14    15 ar  
    26    14    31 1   
    27    15    16 ar  
    28    16    17 ar  
    29    16    32 1   
    30    17    18 ar  
    31    17    33 1   
    32    18    34 1   
    33    19    20 ar  
    34    19    35 1   
    35    20    21 ar  
    36    20    36 1   
    37    21    22 ar  
    38    21    37 1   
    39    22    23 ar  
    40    22    38 1   
    41    23    39 1   
    42    24    25 1   
    43    24    40 1   
    44    24    41 1   
    45    25    42 1   
@<TRIPOS>SUBSTRUCTURE
     1 2SC         1 TEMP              0 ****  ****    0 ROOT
