@<TRIPOS>MOLECULE
2SD
   49    50     1     0     0
SMALL
abcg2


@<TRIPOS>ATOM
      1 O8          19.4830     8.4890    11.8680 oh         1 2SD      -0.691000
      2 C8          18.3610     8.3990    11.0020 c6         1 2SD       0.164300
      3 C9          17.4540     9.5980    11.2270 c6         1 2SD       0.181300
      4 O9          18.1910    10.7790    10.9310 oh         1 2SD      -0.630000
      5 C10         16.1990     9.4680    10.3560 c6         1 2SD       0.118300
      6 O10         16.5680     9.6140     8.9880 oh         1 2SD      -0.716000
      7 C11         15.5240     8.1280    10.6550 c6         1 2SD       0.122300
      8 C12         14.2580     7.8640     9.8720 c3         1 2SD       0.164600
      9 O12         14.5290     7.8790     8.4610 oh         1 2SD      -0.727000
     10 O11         16.4300     7.0390    10.4100 os         1 2SD      -0.457000
     11 C7          17.5870     7.0850    11.2140 c6         1 2SD       0.342300
     12 O4          17.2900     6.9530    12.5830 os         1 2SD      -0.453000
     13 C4          17.0260     5.6380    13.0350 c6         1 2SD       0.164300
     14 C3          15.5540     5.2240    12.9250 c6         1 2SD       0.153300
     15 O3          14.7260     6.3220    13.2840 oh         1 2SD      -0.712000
     16 C2          15.2500     3.9990    13.8200 c6         1 2SD       0.128300
     17 O2          14.4400     3.1150    13.0600 oh         1 2SD      -0.728000
     18 C1          16.5170     3.2830    14.3220 c6         1 2SD      -0.035700
     19 SAI         16.1470     2.2020    15.7630 s6         1 2SD       1.159100
     20 OAM         17.3520     1.4670    16.0660 o          1 2SD      -0.521500
     21 OAE         15.5240     2.9920    16.8000 o          1 2SD      -0.521500
     22 NAJ         14.9800     1.1970    15.1660 n8         1 2SD      -1.052100
     23 O5          17.5490     4.1020    14.8150 os         1 2SD      -0.424000
     24 C5          17.5600     5.4990    14.4560 c6         1 2SD       0.174300
     25 C6          16.8750     6.3610    15.4970 c3         1 2SD       0.149600
     26 O6          17.6640     6.3110    16.6860 oh         1 2SD      -0.720000
     27 HO8         20.1330     7.8290    11.5960 ho         1 2SD       0.501000
     28 H8          18.6850     8.4060     9.9580 h1         1 2SD       0.077700
     29 H9          17.1360     9.6070    12.2760 h1         1 2SD       0.055700
     30 HO9         17.6300    11.5400    11.1290 ho         1 2SD       0.442000
     31 H10         15.5000    10.2650    10.6420 h1         1 2SD       0.035700
     32 HO10        15.8900     9.1490     8.4670 ho         1 2SD       0.531000
     33 H11         15.2400     8.1190    11.7100 h1         1 2SD       0.077700
     34 H12         13.8550     6.8910    10.1660 h1         1 2SD       0.037700
     35 H12A        13.5280     8.6370    10.1280 h1         1 2SD       0.037700
     36 HO12        13.6960     7.9820     7.9870 ho         1 2SD       0.510000
     37 H7          18.1990     6.2400    10.8860 h2         1 2SD       0.067700
     38 H4          17.5980     4.9280    12.4280 h1         1 2SD       0.055700
     39 H3          15.3530     4.9300    11.8940 h1         1 2SD       0.069700
     40 HO3         13.8210     6.1150    13.0190 ho         1 2SD       0.507000
     41 H2          14.7000     4.3740    14.6870 h1         1 2SD       0.066700
     42 HO2         14.2460     2.3420    13.6170 ho         1 2SD       0.528000
     43 H1          16.8890     2.6040    13.5470 h2         1 2SD       0.085700
     44 HNAJ        15.3490     0.3190    14.8120 hn         1 2SD       0.489000
     45 HNAA        14.2280     1.0600    15.8330 hn         1 2SD       0.489000
     46 H5          18.6190     5.7640    14.4460 h1         1 2SD       0.103700
     47 H6          16.8140     7.3840    15.1110 h1         1 2SD       0.044700
     48 H6A         15.8610     6.0080    15.6910 h1         1 2SD       0.044700
     49 HO6         17.1960     6.7920    17.3800 ho         1 2SD       0.506000
@<TRIPOS>BOND
     1     1     2 1   
     2     1    27 1   
     3     2     3 1   
     4     2    11 1   
     5     2    28 1   
     6     3     4 1   
     7     3     5 1   
     8     3    29 1   
     9     4    30 1   
    10     5     6 1   
    11     5     7 1   
    12     5    31 1   
    13     6    32 1   
    14     7     8 1   
    15     7    10 1   
    16     7    33 1   
    17     8     9 1   
    18     8    34 1   
    19     8    35 1   
    20     9    36 1   
    21    10    11 1   
    22    11    12 1   
    23    11    37 1   
    24    12    13 1   
    25    13    14 1   
    26    13    24 1   
    27    13    38 1   
    28    14    15 1   
    29    14    16 1   
    30    14    39 1   
    31    15    40 1   
    32    16    17 1   
    33    16    18 1   
    34    16    41 1   
    35    17    42 1   
    36    18    19 1   
    37    18    23 1   
    38    18    43 1   
    39    19    20 2   
    40    19    21 2   
    41    19    22 1   
    42    22    44 1   
    43    22    45 1   
    44    23    24 1   
    45    24    25 1   
    46    24    46 1   
    47    25    26 1   
    48    25    47 1   
    49    25    48 1   
    50    26    49 1   
@<TRIPOS>SUBSTRUCTURE
     1 2SD         1 TEMP              0 ****  ****    0 ROOT
