@<TRIPOS>MOLECULE
2SD
   49    50     1     0     0
SMALL
No Charge or Current Charge


@<TRIPOS>ATOM
      1 O8          19.7090     8.3850    11.6100 oh         1 2SD      -0.691000
      2 C8          18.4560     8.3560    10.8700 c6         1 2SD       0.164300
      3 C9          17.6490     9.6850    11.0740 c6         1 2SD       0.181300
      4 O9          18.3670    10.8240    10.5600 oh         1 2SD      -0.630000
      5 C10         16.2720     9.6120    10.3500 c6         1 2SD       0.118300
      6 O10         16.4590     9.5910     8.9200 oh         1 2SD      -0.716000
      7 C11         15.5080     8.3350    10.8120 c6         1 2SD       0.122300
      8 C12         14.1430     8.1680    10.0670 c3         1 2SD       0.164600
      9 O12         14.2930     8.0420     8.6330 oh         1 2SD      -0.727000
     10 O11         16.3080     7.1530    10.5510 os         1 2SD      -0.457000
     11 C7          17.5680     7.1150    11.2550 c6         1 2SD       0.342300
     12 O4          17.3390     7.0410    12.6840 os         1 2SD      -0.453000
     13 C4          17.0650     5.7150    13.2140 c6         1 2SD       0.164300
     14 C3          15.5780     5.2280    13.0290 c6         1 2SD       0.153300
     15 O3          14.5890     6.2680    13.1950 oh         1 2SD      -0.712000
     16 C2          15.2190     4.0370    13.9910 c6         1 2SD       0.128300
     17 O2          14.2810     3.1700    13.3240 oh         1 2SD      -0.728000
     18 C1          16.5100     3.2970    14.4680 c6         1 2SD      -0.035700
     19 SAI         16.1660     1.8290    15.5550 s6         1 2SD       1.159100
     20 OAM         17.3380     0.9650    15.6710 o          1 2SD      -0.521500
     21 OAE         15.4080     2.2230    16.7420 o          1 2SD      -0.521500
     22 NAJ         15.0990     0.9700    14.6410 n8         1 2SD      -1.052100
     23 O5          17.4260     4.2130    15.1680 os         1 2SD      -0.424000
     24 C5          17.5140     5.5950    14.6940 c6         1 2SD       0.174300
     25 C6          16.7390     6.5430    15.6750 c3         1 2SD       0.149600
     26 O6          17.2120     6.4600    17.0370 oh         1 2SD      -0.720000
     27 HO8         20.2660     7.6450    11.2770 ho         1 2SD       0.501000
     28 H8          18.6710     8.2660     9.7940 h1         1 2SD       0.077700
     29 H9          17.4670     9.8130    12.1510 h1         1 2SD       0.055700
     30 HO9         18.0840    10.8720     9.6180 ho         1 2SD       0.442000
     31 H10         15.6760    10.4920    10.6350 h1         1 2SD       0.035700
     32 HO10        15.7240     8.9860     8.6020 ho         1 2SD       0.531000
     33 H11         15.3020     8.4080    11.8890 h1         1 2SD       0.077700
     34 H12         13.6440     7.2780    10.4740 h1         1 2SD       0.037700
     35 H12A        13.5090     9.0330    10.3070 h1         1 2SD       0.037700
     36 HO12        13.4380     7.6900     8.2860 ho         1 2SD       0.510000
     37 H7          18.1180     6.2160    10.9360 h2         1 2SD       0.067700
     38 H4          17.7040     5.0090    12.6640 h1         1 2SD       0.055700
     39 H3          15.5220     4.8470    11.9980 h1         1 2SD       0.069700
     40 HO3         13.7180     5.8280    13.0610 ho         1 2SD       0.507000
     41 H2          14.7440     4.4490    14.8940 h1         1 2SD       0.066700
     42 HO2         14.4160     2.2570    13.7140 ho         1 2SD       0.528000
     43 H1          17.0190     2.8450    13.6060 h2         1 2SD       0.085700
     44 HNAJ        15.6860     0.1880    14.3420 hn         1 2SD       0.489000
     45 HNAA        14.5400     0.5170    15.3680 hn         1 2SD       0.489000
     46 H5          18.5700     5.8940    14.7440 h1         1 2SD       0.103700
     47 H6          16.8470     7.5720    15.3050 h1         1 2SD       0.044700
     48 H6A         15.6690     6.3030    15.6400 h1         1 2SD       0.044700
     49 HO6         16.6510     7.0650    17.5770 ho         1 2SD       0.506000
@<TRIPOS>BOND
     1     1     2 1   
     2     1    27 1   
     3     2     3 1   
     4     2    11 1   
     5     2    28 1   
     6     3     4 1   
     7     3     5 1   
     8     3    29 1   
     9     4    30 1   
    10     5     6 1   
    11     5     7 1   
    12     5    31 1   
    13     6    32 1   
    14     7     8 1   
    15     7    10 1   
    16     7    33 1   
    17     8     9 1   
    18     8    34 1   
    19     8    35 1   
    20     9    36 1   
    21    10    11 1   
    22    11    12 1   
    23    11    37 1   
    24    12    13 1   
    25    13    14 1   
    26    13    24 1   
    27    13    38 1   
    28    14    15 1   
    29    14    16 1   
    30    14    39 1   
    31    15    40 1   
    32    16    17 1   
    33    16    18 1   
    34    16    41 1   
    35    17    42 1   
    36    18    19 1   
    37    18    23 1   
    38    18    43 1   
    39    19    20 2   
    40    19    21 2   
    41    19    22 1   
    42    22    44 1   
    43    22    45 1   
    44    23    24 1   
    45    24    25 1   
    46    24    46 1   
    47    25    26 1   
    48    25    47 1   
    49    25    48 1   
    50    26    49 1   
@<TRIPOS>SUBSTRUCTURE
     1 2SD         1 TEMP              0 ****  ****    0 ROOT
