@<TRIPOS>MOLECULE
2SE
   68    71     1     0     0
SMALL
abcg2


@<TRIPOS>ATOM
      1 CAI         -5.6440     1.3970     0.5080 ca         1 2SE      -0.202000
      2 CAK         -7.0170     1.2700     0.4460 ca         1 2SE       0.032500
      3 CBA         -7.5770     0.0770     0.0020 ca         1 2SE      -0.323500
      4 SBG         -9.3250    -0.1090    -0.0760 sy         1 2SE       1.132600
      5 OAB         -9.7000    -1.4510     0.3490 o          1 2SE      -0.547500
      6 OAC         -9.9310     1.0240     0.6130 o          1 2SE      -0.547500
      7 NAA         -9.5840    -0.0760    -1.7100 n8         1 2SE      -1.001100
      8 CAL         -6.7660    -0.9840    -0.3740 ca         1 2SE       0.032500
      9 CAJ         -5.3890    -0.8620    -0.3120 ca         1 2SE      -0.202000
     10 CAZ         -4.8170     0.3350     0.1290 ca         1 2SE       0.207100
     11 OAY         -3.5020     0.5480     0.2230 os         1 2SE      -0.341100
     12 CAP         -2.5990    -0.4920    -0.1320 c3         1 2SE       0.162600
     13 CAO         -1.1900     0.0250     0.0660 c3         1 2SE      -0.085400
     14 CAU         -0.1700    -1.0600    -0.2650 c3         1 2SE       0.173800
     15 NBE          1.1980    -0.5820    -0.2130 n3         1 2SE      -0.717600
     16 CAW          2.1060    -1.4930    -0.8860 c6         1 2SE       0.167300
     17 CAT          3.5210    -0.9350    -0.9500 c6         1 2SE      -0.073400
     18 CAV          1.6460    -0.3270     1.1430 c6         1 2SE       0.167300
     19 CAS          3.0410     0.2770     1.1530 c6         1 2SE      -0.073400
     20 CBD          4.0440    -0.6460     0.4540 c6         1 2SE      -0.082700
     21 CBF          5.5080    -0.1340     0.5540 c3         1 2SE       0.155700
     22 CBC          6.4650    -0.9680    -0.3100 c5         1 2SE      -0.054700
     23 CAQ          7.9410    -0.5710    -0.2010 c5         1 2SE      -0.071900
     24 CAM          8.6580    -1.7830    -0.7860 c5         1 2SE      -0.079400
     25 CAN          7.9050    -2.9670    -0.1740 c5         1 2SE      -0.079400
     26 CAR          6.4490    -2.4820    -0.0070 c5         1 2SE      -0.071900
     27 OAD          5.9450    -0.2680     1.8940 oh         1 2SE      -0.660000
     28 CBB          5.6000     1.3330     0.1400 ca         1 2SE       0.333300
     29 NAX          5.4340     1.6040    -1.1520 nb         1 2SE      -0.677000
     30 CAG          5.4850     2.8650    -1.5590 ca         1 2SE       0.339900
     31 CAE          5.7080     3.9350    -0.7070 ca         1 2SE      -0.166000
     32 CAF          5.8880     3.6580     0.6390 ca         1 2SE      -0.076000
     33 CAH          5.8370     2.3420     1.0710 ca         1 2SE      -0.147000
     34 H1          -5.2000     2.3210     0.8550 ha         1 2SE       0.128500
     35 H2          -7.6390     2.1010     0.7470 ha         1 2SE       0.136500
     36 H3         -10.5030    -0.4410    -1.9440 hn         1 2SE       0.470500
     37 H4          -9.4700     0.8520    -2.1040 hn         1 2SE       0.470500
     38 H5          -7.1930    -1.9150    -0.7200 ha         1 2SE       0.136500
     39 H6          -4.7830    -1.7060    -0.6090 ha         1 2SE       0.128500
     40 H7          -2.7780    -1.3720     0.4960 h1         1 2SE       0.039200
     41 H8          -2.7560    -0.7880    -1.1750 h1         1 2SE       0.039200
     42 H9          -1.0160     0.8860    -0.5840 hc         1 2SE       0.065200
     43 H10         -1.0800     0.3630     1.0980 hc         1 2SE       0.065200
     44 H11         -0.3250    -1.9280     0.3990 h1         1 2SE       0.029700
     45 H12         -0.3610    -1.4140    -1.2820 h1         1 2SE       0.029700
     46 H14          2.1310    -2.4810    -0.3900 h1         1 2SE       0.030200
     47 H15          1.7390    -1.6650    -1.9010 h1         1 2SE       0.030200
     48 H16          4.1510    -1.6670    -1.4580 hc         1 2SE       0.055950
     49 H17          3.5330    -0.0290    -1.5560 hc         1 2SE       0.055950
     50 H18          0.9600     0.3660     1.6310 h1         1 2SE       0.030200
     51 H19          1.6420    -1.2530     1.7480 h1         1 2SE       0.030200
     52 H20          3.0040     1.2460     0.6480 hc         1 2SE       0.055950
     53 H21          3.3160     0.4800     2.1930 hc         1 2SE       0.055950
     54 H22          4.0400    -1.6010     0.9980 hc         1 2SE       0.048700
     55 H23          6.1700    -0.8160    -1.3510 hc         1 2SE       0.070700
     56 H24          8.1710     0.3580    -0.7260 hc         1 2SE       0.045950
     57 H25          8.2340    -0.4380     0.8440 hc         1 2SE       0.045950
     58 H26          8.5480    -1.7850    -1.8750 hc         1 2SE       0.040200
     59 H27          9.7270    -1.8000    -0.5700 hc         1 2SE       0.040200
     60 H28          7.9780    -3.8690    -0.7840 hc         1 2SE       0.040200
     61 H29          8.3340    -3.2080     0.8000 hc         1 2SE       0.040200
     62 H30          6.0930    -2.6790     1.0050 hc         1 2SE       0.045950
     63 H31          5.7710    -3.0050    -0.6830 hc         1 2SE       0.045950
     64 H32          5.1890    -0.2250     2.4870 ho         1 2SE       0.443000
     65 H33          5.3450     3.0340    -2.6220 h4         1 2SE       0.017100
     66 H34          5.7410     4.9460    -1.0880 ha         1 2SE       0.124000
     67 H35          6.0680     4.4560     1.3470 ha         1 2SE       0.118000
     68 H36          5.9840     2.1110     2.1150 ha         1 2SE       0.130000
@<TRIPOS>BOND
     1     1     2 ar  
     2     1    10 ar  
     3     1    34 1   
     4     2     3 ar  
     5     2    35 1   
     6     3     4 1   
     7     3     8 ar  
     8     4     5 2   
     9     4     6 2   
    10     4     7 1   
    11     7    36 1   
    12     7    37 1   
    13     8     9 ar  
    14     8    38 1   
    15     9    10 ar  
    16     9    39 1   
    17    10    11 1   
    18    11    12 1   
    19    12    13 1   
    20    12    40 1   
    21    12    41 1   
    22    13    14 1   
    23    13    42 1   
    24    13    43 1   
    25    14    15 1   
    26    14    44 1   
    27    14    45 1   
    28    15    16 1   
    29    15    18 1   
    30    16    17 1   
    31    16    46 1   
    32    16    47 1   
    33    17    20 1   
    34    17    48 1   
    35    17    49 1   
    36    18    19 1   
    37    18    50 1   
    38    18    51 1   
    39    19    20 1   
    40    19    52 1   
    41    19    53 1   
    42    20    21 1   
    43    20    54 1   
    44    21    22 1   
    45    21    27 1   
    46    21    28 1   
    47    22    23 1   
    48    22    26 1   
    49    22    55 1   
    50    23    24 1   
    51    23    56 1   
    52    23    57 1   
    53    24    25 1   
    54    24    58 1   
    55    24    59 1   
    56    25    26 1   
    57    25    60 1   
    58    25    61 1   
    59    26    62 1   
    60    26    63 1   
    61    27    64 1   
    62    28    29 ar  
    63    28    33 ar  
    64    29    30 ar  
    65    30    31 ar  
    66    30    65 1   
    67    31    32 ar  
    68    31    66 1   
    69    32    33 ar  
    70    32    67 1   
    71    33    68 1   
@<TRIPOS>SUBSTRUCTURE
     1 2SE         1 TEMP              0 ****  ****    0 ROOT
