@<TRIPOS>MOLECULE
2SE
   68    71     1     0     0
SMALL
No Charge or Current Charge


@<TRIPOS>ATOM
      1 CAI         -5.8380     1.1930     0.7010 ca         1 2SE      -0.202000
      2 CAK         -7.2360     1.0900     0.6140 ca         1 2SE       0.032500
      3 CBA         -7.8160    -0.0380     0.0010 ca         1 2SE      -0.323500
      4 SBG         -9.5960    -0.1850    -0.1170 sy         1 2SE       1.132600
      5 OAB         -9.9910    -1.5900    -0.2190 o          1 2SE      -0.547500
      6 OAC        -10.2380     0.7600     0.7930 o          1 2SE      -0.547500
      7 NAA         -9.8750     0.4470    -1.5980 n8         1 2SE      -1.001100
      8 CAL         -6.9930    -1.0560    -0.5200 ca         1 2SE       0.032500
      9 CAJ         -5.5950    -0.9450    -0.4290 ca         1 2SE      -0.202000
     10 CAZ         -5.0130     0.1840     0.1840 ca         1 2SE       0.207100
     11 OAY         -3.6480     0.3460     0.3020 os         1 2SE      -0.341100
     12 CAP         -2.7160    -0.6290    -0.1930 c3         1 2SE       0.162600
     13 CAO         -1.2980    -0.1170     0.1130 c3         1 2SE      -0.085400
     14 CAU         -0.2040    -1.0920    -0.3710 c3         1 2SE       0.173800
     15 NBE          1.1840    -0.5780    -0.2590 n3         1 2SE      -0.717600
     16 CAW          2.1540    -1.4620    -0.9620 c6         1 2SE       0.167300
     17 CAT          3.5850    -0.8710    -0.9630 c6         1 2SE      -0.073400
     18 CAV          1.6190    -0.3260     1.1460 c6         1 2SE       0.167300
     19 CAS          3.0330     0.2990     1.2030 c6         1 2SE      -0.073400
     20 CBD          4.0870    -0.5980     0.4860 c6         1 2SE      -0.082700
     21 CBF          5.5690    -0.0420     0.5820 c3         1 2SE       0.155700
     22 CBC          6.6400    -0.9890    -0.0890 c5         1 2SE      -0.054700
     23 CAQ          8.1300    -0.5820     0.1060 c5         1 2SE      -0.071900
     24 CAM          8.8830    -1.7730    -0.5520 c5         1 2SE      -0.079400
     25 CAN          7.9500    -3.0080    -0.3320 c5         1 2SE      -0.079400
     26 CAR          6.7260    -2.4500     0.4470 c5         1 2SE      -0.071900
     27 OAD          5.9100    -0.0070     1.9860 oh         1 2SE      -0.660000
     28 CBB          5.6540     1.4100    -0.0110 ca         1 2SE       0.333300
     29 NAX          5.8780     1.5440    -1.3500 nb         1 2SE      -0.677000
     30 CAG          5.9430     2.7850    -1.8810 ca         1 2SE       0.339900
     31 CAE          5.7860     3.9510    -1.1180 ca         1 2SE      -0.166000
     32 CAF          5.5500     3.8370     0.2590 ca         1 2SE      -0.076000
     33 CAH          5.4830     2.5490     0.8140 ca         1 2SE      -0.147000
     34 H1          -5.3890     2.0630     1.1740 ha         1 2SE       0.128500
     35 H2          -7.8570     1.8850     1.0250 ha         1 2SE       0.136500
     36 H3         -10.5810     1.1460    -1.3780 hn         1 2SE       0.470500
     37 H4          -9.0330     0.9930    -1.7590 hn         1 2SE       0.470500
     38 H5          -7.4310    -1.9320    -0.9980 ha         1 2SE       0.136500
     39 H6          -4.9840    -1.7430    -0.8390 ha         1 2SE       0.128500
     40 H7          -2.8700    -1.5980     0.3000 h1         1 2SE       0.039200
     41 H8          -2.8320    -0.7620    -1.2770 h1         1 2SE       0.039200
     42 H9          -1.1540     0.8550    -0.3730 hc         1 2SE       0.065200
     43 H10         -1.2100     0.0380     1.1940 hc         1 2SE       0.065200
     44 H11         -0.3000    -2.0350     0.1840 h1         1 2SE       0.029700
     45 H12         -0.4130    -1.3200    -1.4260 h1         1 2SE       0.029700
     46 H14          2.1770    -2.4540    -0.4860 h1         1 2SE       0.030200
     47 H15          1.8400    -1.6140    -2.0050 h1         1 2SE       0.030200
     48 H16          4.2470    -1.5750    -1.4820 hc         1 2SE       0.055950
     49 H17          3.5840     0.0560    -1.5510 hc         1 2SE       0.055950
     50 H18          0.9280     0.3640     1.6500 h1         1 2SE       0.030200
     51 H19          1.6160    -1.2650     1.7190 h1         1 2SE       0.030200
     52 H20          2.9940     1.2920     0.7360 hc         1 2SE       0.055950
     53 H21          3.3090     0.4580     2.2540 hc         1 2SE       0.055950
     54 H22          4.0950    -1.5640     1.0100 hc         1 2SE       0.048700
     55 H23          6.4120    -1.0130    -1.1610 hc         1 2SE       0.070700
     56 H24          8.3760     0.3710    -0.3760 hc         1 2SE       0.045950
     57 H25          8.4000    -0.4840     1.1650 hc         1 2SE       0.045950
     58 H26          9.0400    -1.5950    -1.6220 hc         1 2SE       0.040200
     59 H27          9.8740    -1.9190    -0.1070 hc         1 2SE       0.040200
     60 H28          7.6410    -3.4330    -1.2950 hc         1 2SE       0.040200
     61 H29          8.4500    -3.8100     0.2220 hc         1 2SE       0.040200
     62 H30          6.9000    -2.4900     1.5290 hc         1 2SE       0.045950
     63 H31          5.8200    -3.0310     0.2430 hc         1 2SE       0.045950
     64 H32          5.8960    -0.9330     2.3040 ho         1 2SE       0.443000
     65 H33          6.1250     2.8440    -2.9530 h4         1 2SE       0.017100
     66 H34          5.8460     4.9260    -1.5940 ha         1 2SE       0.124000
     67 H35          5.4200     4.7210     0.8800 ha         1 2SE       0.118000
     68 H36          5.2930     2.4370     1.8770 ha         1 2SE       0.130000
@<TRIPOS>BOND
     1     1     2 ar  
     2     1    10 ar  
     3     1    34 1   
     4     2     3 ar  
     5     2    35 1   
     6     3     4 1   
     7     3     8 ar  
     8     4     5 2   
     9     4     6 2   
    10     4     7 1   
    11     7    36 1   
    12     7    37 1   
    13     8     9 ar  
    14     8    38 1   
    15     9    10 ar  
    16     9    39 1   
    17    10    11 1   
    18    11    12 1   
    19    12    13 1   
    20    12    40 1   
    21    12    41 1   
    22    13    14 1   
    23    13    42 1   
    24    13    43 1   
    25    14    15 1   
    26    14    44 1   
    27    14    45 1   
    28    15    16 1   
    29    15    18 1   
    30    16    17 1   
    31    16    46 1   
    32    16    47 1   
    33    17    20 1   
    34    17    48 1   
    35    17    49 1   
    36    18    19 1   
    37    18    50 1   
    38    18    51 1   
    39    19    20 1   
    40    19    52 1   
    41    19    53 1   
    42    20    21 1   
    43    20    54 1   
    44    21    22 1   
    45    21    27 1   
    46    21    28 1   
    47    22    23 1   
    48    22    26 1   
    49    22    55 1   
    50    23    24 1   
    51    23    56 1   
    52    23    57 1   
    53    24    25 1   
    54    24    58 1   
    55    24    59 1   
    56    25    26 1   
    57    25    60 1   
    58    25    61 1   
    59    26    62 1   
    60    26    63 1   
    61    27    64 1   
    62    28    29 ar  
    63    28    33 ar  
    64    29    30 ar  
    65    30    31 ar  
    66    30    65 1   
    67    31    32 ar  
    68    31    66 1   
    69    32    33 ar  
    70    32    67 1   
    71    33    68 1   
@<TRIPOS>SUBSTRUCTURE
     1 2SE         1 TEMP              0 ****  ****    0 ROOT
