@<TRIPOS>MOLECULE
2SF
   66    69     1     0     0
SMALL
No Charge or Current Charge


@<TRIPOS>ATOM
      1 CAK         -6.7800     0.9410    -0.5660 ca         1 2SF      -0.184500
      2 CAI         -8.1780     1.0430    -0.6840 ca         1 2SF      -0.030500
      3 CAY         -9.0100     0.0480    -0.1350 ca         1 2SF      -0.066000
      4 CAC        -10.4370     0.1530    -0.2560 cg         1 2SF       0.331000
      5 NAA        -11.5970     0.2420    -0.3630 n1         1 2SF      -0.462000
      6 CAJ         -8.4360    -1.0510     0.5320 ca         1 2SF      -0.030500
      7 CAL         -7.0380    -1.1510     0.6480 ca         1 2SF      -0.184500
      8 CAZ         -6.2050    -0.1610     0.1030 ca         1 2SF       0.176100
      9 OAX         -4.8420    -0.3150     0.2490 os         1 2SF      -0.342100
     10 CAP         -3.9030     0.6400    -0.2710 c3         1 2SF       0.164600
     11 CAO         -2.4900     0.1440     0.0790 c3         1 2SF      -0.085400
     12 CAU         -1.3890     1.1000    -0.4290 c3         1 2SF       0.174800
     13 NBD         -0.0030     0.5940    -0.2730 n3         1 2SF      -0.719600
     14 CAW          0.9770     1.4510    -0.9940 c6         1 2SF       0.168300
     15 CAT          2.4080     0.8630    -0.9480 c6         1 2SF      -0.072900
     16 CAV          0.4100     0.4030     1.1470 c6         1 2SF       0.168300
     17 CAS          1.8270    -0.2120     1.2570 c6         1 2SF      -0.072900
     18 CBC          2.8940     0.6570     0.5190 c6         1 2SF      -0.086700
     19 CBE          4.3780     0.1090     0.6520 c3         1 2SF       0.243500
     20 CBB          5.4550     1.0410    -0.0400 c5         1 2SF      -0.055700
     21 CAQ          6.9440     0.6060     0.1080 c5         1 2SF      -0.075900
     22 CAM          7.7010     1.7880    -0.5630 c5         1 2SF      -0.079900
     23 CAN          6.7890     3.0360    -0.3320 c5         1 2SF      -0.079900
     24 CAR          5.5820     2.5010     0.4910 c5         1 2SF      -0.075900
     25 NAB          4.7170     0.1180     2.0930 n8         1 2SF      -0.991200
     26 CBA          4.4660    -1.3570     0.1170 ca         1 2SF      -0.060300
     27 CAG          4.6750    -1.6240    -1.2610 ca         1 2SF      -0.103000
     28 CAE          4.7440    -2.9410    -1.7480 ca         1 2SF      -0.113500
     29 CAD          4.6000    -4.0260    -0.8730 ca         1 2SF      -0.110000
     30 CAF          4.3810    -3.7900     0.4910 ca         1 2SF      -0.113500
     31 CAH          4.3120    -2.4750     0.9810 ca         1 2SF      -0.103000
     32 H1          -6.1630     1.7240    -0.9990 ha         1 2SF       0.128000
     33 H2          -8.6130     1.8970    -1.2010 ha         1 2SF       0.125000
     34 H3          -9.0690    -1.8270     0.9600 ha         1 2SF       0.125000
     35 H4          -6.5970    -2.0000     1.1630 ha         1 2SF       0.128000
     36 H5          -4.0020     0.7280    -1.3610 h1         1 2SF       0.036700
     37 H6          -4.0660     1.6290     0.1790 h1         1 2SF       0.036700
     38 H7          -2.4180     0.0340     1.1660 hc         1 2SF       0.065700
     39 H8          -2.3370    -0.8470    -0.3650 hc         1 2SF       0.065700
     40 H9          -1.5820     1.2840    -1.4950 h1         1 2SF       0.029200
     41 H10         -1.4960     2.0660     0.0850 h1         1 2SF       0.029200
     42 H12          0.6800     1.5600    -2.0480 h1         1 2SF       0.029700
     43 H13          0.9900     2.4610    -0.5590 h1         1 2SF       0.029700
     44 H14          2.4150    -0.0900    -1.4930 hc         1 2SF       0.051950
     45 H15          3.0730     1.5450    -1.4910 hc         1 2SF       0.051950
     46 H16          0.3940     1.3660     1.6800 h1         1 2SF       0.029700
     47 H17         -0.2860    -0.2670     1.6690 h1         1 2SF       0.029700
     48 H18          2.0740    -0.3240     2.3200 hc         1 2SF       0.051950
     49 H19          1.8000    -1.2250     0.8330 hc         1 2SF       0.051950
     50 H20          2.8940     1.6450     0.9980 hc         1 2SF       0.035700
     51 H21          5.2050     1.0870    -1.1030 hc         1 2SF       0.045700
     52 H22          7.2410     0.4970     1.1580 hc         1 2SF       0.047700
     53 H23          7.1570    -0.3490    -0.3850 hc         1 2SF       0.047700
     54 H24          8.7000     1.9210    -0.1330 hc         1 2SF       0.040200
     55 H25          7.8410     1.6060    -1.6360 hc         1 2SF       0.040200
     56 H26          7.3140     3.8400     0.1970 hc         1 2SF       0.040200
     57 H27          6.4550     3.4520    -1.2900 hc         1 2SF       0.040200
     58 H28          4.6790     3.0950     0.3170 hc         1 2SF       0.047700
     59 H29          5.7960     2.5410     1.5660 hc         1 2SF       0.047700
     60 H30          4.6170     1.0740     2.4430 hn         1 2SF       0.394000
     61 H31          3.9940    -0.4010     2.5930 hn         1 2SF       0.394000
     62 H33          4.7760    -0.8170    -1.9790 ha         1 2SF       0.113000
     63 H34          4.9060    -3.1190    -2.8090 ha         1 2SF       0.110000
     64 H35          4.6530    -5.0450    -1.2510 ha         1 2SF       0.112000
     65 H36          4.2610    -4.6290     1.1730 ha         1 2SF       0.110000
     66 H37          4.1300    -2.3410     2.0430 ha         1 2SF       0.113000
@<TRIPOS>BOND
     1     1     2 ar  
     2     1     8 ar  
     3     1    32 1   
     4     2     3 ar  
     5     2    33 1   
     6     3     4 1   
     7     3     6 ar  
     8     4     5 3   
     9     6     7 ar  
    10     6    34 1   
    11     7     8 ar  
    12     7    35 1   
    13     8     9 1   
    14     9    10 1   
    15    10    11 1   
    16    10    36 1   
    17    10    37 1   
    18    11    12 1   
    19    11    38 1   
    20    11    39 1   
    21    12    13 1   
    22    12    40 1   
    23    12    41 1   
    24    13    14 1   
    25    13    16 1   
    26    14    15 1   
    27    14    42 1   
    28    14    43 1   
    29    15    18 1   
    30    15    44 1   
    31    15    45 1   
    32    16    17 1   
    33    16    46 1   
    34    16    47 1   
    35    17    18 1   
    36    17    48 1   
    37    17    49 1   
    38    18    19 1   
    39    18    50 1   
    40    19    20 1   
    41    19    25 1   
    42    19    26 1   
    43    20    21 1   
    44    20    24 1   
    45    20    51 1   
    46    21    22 1   
    47    21    52 1   
    48    21    53 1   
    49    22    23 1   
    50    22    54 1   
    51    22    55 1   
    52    23    24 1   
    53    23    56 1   
    54    23    57 1   
    55    24    58 1   
    56    24    59 1   
    57    25    60 1   
    58    25    61 1   
    59    26    27 ar  
    60    26    31 ar  
    61    27    28 ar  
    62    27    62 1   
    63    28    29 ar  
    64    28    63 1   
    65    29    30 ar  
    66    29    64 1   
    67    30    31 ar  
    68    30    65 1   
    69    31    66 1   
@<TRIPOS>SUBSTRUCTURE
     1 2SF         1 TEMP              0 ****  ****    0 ROOT
