@<TRIPOS>MOLECULE
2SF
   66    69     1     0     0
SMALL
bcc


@<TRIPOS>ATOM
      1 CAK         -6.5540     0.9720    -0.5200 ca         1 2SF      -0.202500
      2 CAI         -7.9250     1.0770    -0.6780 ca         1 2SF      -0.048500
      3 CAY         -8.7630     0.0290    -0.3080 ca         1 2SF      -0.066000
      4 CAC        -10.1720     0.1440    -0.4750 cg         1 2SF       0.241800
      5 NAA        -11.3140     0.2370    -0.6100 n1         1 2SF      -0.372800
      6 CAJ         -8.2120    -1.1410     0.2280 ca         1 2SF      -0.048500
      7 CAL         -6.8490    -1.2500     0.3860 ca         1 2SF      -0.202500
      8 CAZ         -6.0060    -0.1960     0.0150 ca         1 2SF       0.176100
      9 OAX         -4.7000    -0.3930     0.2070 os         1 2SF      -0.318900
     10 CAP         -3.7780     0.6310    -0.1510 c3         1 2SF       0.141400
     11 CAO         -2.3820     0.1310     0.1540 c3         1 2SF      -0.085400
     12 CAU         -1.3460     1.2040    -0.1670 c3         1 2SF       0.174800
     13 NBD          0.0130     0.7050    -0.1140 n3         1 2SF      -0.719600
     14 CAW          0.9440     1.6070    -0.7650 c6         1 2SF       0.168300
     15 CAT          2.3390     1.0030    -0.8450 c6         1 2SF      -0.072900
     16 CAV          0.4540     0.4130     1.2380 c6         1 2SF       0.168300
     17 CAS          1.8340    -0.2250     1.2390 c6         1 2SF      -0.072900
     18 CBC          2.8660     0.6690     0.5500 c6         1 2SF      -0.086700
     19 CBE          4.3250     0.1050     0.6510 c3         1 2SF       0.243500
     20 CBB          5.2940     0.9580    -0.1950 c5         1 2SF      -0.055700
     21 CAQ          6.7640     0.4950    -0.1520 c5         1 2SF      -0.075900
     22 CAM          7.6160     1.7680    -0.3530 c5         1 2SF      -0.079900
     23 CAN          6.6140     2.9010    -0.6060 c5         1 2SF      -0.079900
     24 CAR          5.3610     2.4520     0.1390 c5         1 2SF      -0.075900
     25 NAB          4.7810     0.1610     2.0390 n8         1 2SF      -0.880800
     26 CBA          4.3810    -1.3440     0.1700 ca         1 2SF      -0.060300
     27 CAG          4.2580    -1.6650    -1.1840 ca         1 2SF      -0.121000
     28 CAE          4.2750    -2.9810    -1.6240 ca         1 2SF      -0.131500
     29 CAD          4.4190    -4.0230    -0.7190 ca         1 2SF      -0.128000
     30 CAF          4.5580    -3.7240     0.6280 ca         1 2SF      -0.131500
     31 CAH          4.5440    -2.4030     1.0620 ca         1 2SF      -0.121000
     32 H1          -5.9340     1.8060    -0.8180 ha         1 2SF       0.146000
     33 H2          -8.3420     1.9840    -1.0940 ha         1 2SF       0.143000
     34 H3          -8.8540    -1.9610     0.5190 ha         1 2SF       0.143000
     35 H4          -6.4220    -2.1540     0.8000 ha         1 2SF       0.146000
     36 H5          -3.8750     0.8660    -1.2170 h1         1 2SF       0.036700
     37 H6          -3.9960     1.5440     0.4140 h1         1 2SF       0.036700
     38 H7          -2.3290    -0.1610     1.2050 hc         1 2SF       0.065700
     39 H8          -2.1670    -0.7570    -0.4460 hc         1 2SF       0.065700
     40 H9          -1.5260     1.5650    -1.1840 h1         1 2SF       0.029200
     41 H10         -1.4930     2.0710     0.5000 h1         1 2SF       0.029200
     42 H12          0.5800     1.8160    -1.7740 h1         1 2SF       0.029700
     43 H13          1.0000     2.5810    -0.2430 h1         1 2SF       0.029700
     44 H14          2.2940     0.1070    -1.4670 hc         1 2SF       0.051950
     45 H15          2.9890     1.7170    -1.3550 hc         1 2SF       0.051950
     46 H16          0.4680     1.3280     1.8580 h1         1 2SF       0.029700
     47 H17         -0.2510    -0.2730     1.7110 h1         1 2SF       0.029700
     48 H18          2.1110    -0.4350     2.2750 hc         1 2SF       0.051950
     49 H19          1.7720    -1.1890     0.7270 hc         1 2SF       0.051950
     50 H20          2.8950     1.6170     1.1060 hc         1 2SF       0.035700
     51 H21          4.9670     0.9000    -1.2370 hc         1 2SF       0.045700
     52 H22          6.9840     0.0310     0.8090 hc         1 2SF       0.047700
     53 H23          6.9590    -0.2560    -0.9190 hc         1 2SF       0.047700
     54 H24          8.1970     1.9790     0.5470 hc         1 2SF       0.040200
     55 H25          8.3330     1.6660    -1.1690 hc         1 2SF       0.040200
     56 H26          6.9810     3.8750    -0.2810 hc         1 2SF       0.040200
     57 H27          6.3930     2.9820    -1.6750 hc         1 2SF       0.040200
     58 H28          4.4650     2.9990    -0.1630 hc         1 2SF       0.047700
     59 H29          5.4990     2.6220     1.2100 hc         1 2SF       0.047700
     60 H30          4.7690     1.1250     2.3480 hn         1 2SF       0.338800
     61 H31          4.1240    -0.3070     2.6490 hn         1 2SF       0.338800
     62 H33          4.1600    -0.8840    -1.9260 ha         1 2SF       0.131000
     63 H34          4.1800    -3.1880    -2.6830 ha         1 2SF       0.128000
     64 H35          4.4330    -5.0510    -1.0580 ha         1 2SF       0.130000
     65 H36          4.6840    -4.5190     1.3510 ha         1 2SF       0.128000
     66 H37          4.6780    -2.2160     2.1180 ha         1 2SF       0.131000
@<TRIPOS>BOND
     1     1     2 ar  
     2     1     8 ar  
     3     1    32 1   
     4     2     3 ar  
     5     2    33 1   
     6     3     4 1   
     7     3     6 ar  
     8     4     5 3   
     9     6     7 ar  
    10     6    34 1   
    11     7     8 ar  
    12     7    35 1   
    13     8     9 1   
    14     9    10 1   
    15    10    11 1   
    16    10    36 1   
    17    10    37 1   
    18    11    12 1   
    19    11    38 1   
    20    11    39 1   
    21    12    13 1   
    22    12    40 1   
    23    12    41 1   
    24    13    14 1   
    25    13    16 1   
    26    14    15 1   
    27    14    42 1   
    28    14    43 1   
    29    15    18 1   
    30    15    44 1   
    31    15    45 1   
    32    16    17 1   
    33    16    46 1   
    34    16    47 1   
    35    17    18 1   
    36    17    48 1   
    37    17    49 1   
    38    18    19 1   
    39    18    50 1   
    40    19    20 1   
    41    19    25 1   
    42    19    26 1   
    43    20    21 1   
    44    20    24 1   
    45    20    51 1   
    46    21    22 1   
    47    21    52 1   
    48    21    53 1   
    49    22    23 1   
    50    22    54 1   
    51    22    55 1   
    52    23    24 1   
    53    23    56 1   
    54    23    57 1   
    55    24    58 1   
    56    24    59 1   
    57    25    60 1   
    58    25    61 1   
    59    26    27 ar  
    60    26    31 ar  
    61    27    28 ar  
    62    27    62 1   
    63    28    29 ar  
    64    28    63 1   
    65    29    30 ar  
    66    29    64 1   
    67    30    31 ar  
    68    30    65 1   
    69    31    66 1   
@<TRIPOS>SUBSTRUCTURE
     1 2SF         1 TEMP              0 ****  ****    0 ROOT
