@<TRIPOS>MOLECULE
2SH
   56    59     1     0     0
SMALL
No Charge or Current Charge


@<TRIPOS>ATOM
      1 C4          -5.0020    -2.0870    -1.2670 ca         1 2SH       0.062000
      2 C5          -4.6780    -0.7240    -1.1420 ca         1 2SH      -0.071000
      3 C6          -4.0250    -0.2470     0.0150 ca         1 2SH      -0.115300
      4 C7          -3.6720     1.2390     0.1300 c3         1 2SH       0.175000
      5 C15          0.6850     3.7390     0.0860 c6         1 2SH       0.109000
      6 C17          2.7960     2.4640     0.6610 ca         1 2SH      -0.238300
      7 C20          4.0360     0.1110     0.3620 ca         1 2SH       0.385900
      8 C22          2.0740     1.2670     0.5990 ca         1 2SH       0.148300
      9 C26          6.4070    -2.8400     0.3220 c6         1 2SH      -0.132400
     10 C1          -3.6960    -1.1560     1.0440 ca         1 2SH      -0.055000
     11 C2          -4.0190    -2.5190     0.9190 ca         1 2SH      -0.152000
     12 C3          -4.6710    -2.9830    -0.2340 ca         1 2SH       0.186000
     13 C9          -4.5050     1.9830     1.2190 c3         1 2SH       0.155600
     14 O10         -4.1070     1.6220     2.5570 oh         1 2SH      -0.657000
     15 N11         -2.2270     1.4060     0.3050 ns         1 2SH      -0.499900
     16 C12         -1.5370     2.5650     0.0590 c          1 2SH       0.657100
     17 O13         -2.0870     3.5640    -0.3800 o          1 2SH      -0.646100
     18 N14         -0.1590     2.5310     0.3470 n          1 2SH      -0.429800
     19 C16          2.0410     3.7710     0.8310 c6         1 2SH      -0.032100
     20 C18          4.1960     2.3900     0.5660 ca         1 2SH       0.153900
     21 N19          4.8220     1.2060     0.4150 nb         1 2SH      -0.240000
     22 N21          2.6940     0.0790     0.4520 nb         1 2SH      -0.258000
     23 C23          0.5480     1.2570     0.7260 c6         1 2SH       0.046700
     24 C25          6.0690    -1.3760    -0.0430 c6         1 2SH       0.247500
     25 C27          7.8700    -3.1590    -0.0610 c6         1 2SH       0.157100
     26 O28          8.0760    -2.8860    -1.4640 os         1 2SH      -0.449000
     27 C29          7.8610    -1.5060    -1.8320 c6         1 2SH       0.157100
     28 C30          6.3990    -1.1060    -1.5310 c6         1 2SH      -0.132400
     29 Cl1         -5.8190    -2.6520    -2.7240 cl         1 2SH      -0.168000
     30 F32         -4.9770    -4.2970    -0.3420 f          1 2SH      -0.160000
     31 H1          -4.9370    -0.0410    -1.9480 ha         1 2SH       0.132000
     32 H2          -3.9300     1.7100    -0.8280 h1         1 2SH       0.066700
     33 H3           0.8780     3.7910    -0.9950 h1         1 2SH       0.063200
     34 H4           0.1230     4.6460     0.3530 h1         1 2SH       0.063200
     35 H6           5.7360    -3.5330    -0.2040 hc         1 2SH       0.057450
     36 H7          -3.1900    -0.8100     1.9430 ha         1 2SH       0.139000
     37 H8          -3.7660    -3.2160     1.7140 ha         1 2SH       0.137000
     38 H9          -4.3800     3.0640     1.0760 h1         1 2SH       0.036700
     39 H10         -5.5680     1.7570     1.0640 h1         1 2SH       0.036700
     40 H11         -4.6590     2.1520     3.1740 ho         1 2SH       0.444000
     41 H12         -1.7030     0.6380     0.6950 hn         1 2SH       0.312500
     42 H13          2.6420     4.6160     0.4680 hc         1 2SH       0.060200
     43 H14          1.8640     3.9500     1.9000 hc         1 2SH       0.060200
     44 H15          4.8230     3.2800     0.6090 h4         1 2SH       0.020100
     45 H16          0.1720     0.4380     0.0950 h1         1 2SH       0.071200
     46 H17          0.2930     1.0090     1.7660 h1         1 2SH       0.071200
     47 H19          6.6930    -0.7210     0.5870 h1         1 2SH       0.078700
     48 H20          8.5660    -2.5510     0.5350 h1         1 2SH       0.047450
     49 H21          8.0880    -4.2190     0.1330 h1         1 2SH       0.047450
     50 H22          8.5580    -0.8660    -1.2720 h1         1 2SH       0.047450
     51 H23          8.0710    -1.3840    -2.9050 h1         1 2SH       0.047450
     52 H24          5.7230    -1.6770    -2.1820 hc         1 2SH       0.057450
     53 H25          6.2500    -0.0450    -1.7710 hc         1 2SH       0.057450
     54 N24          4.6410    -1.1300     0.2140 nu         1 2SH      -0.918100
     55 H5           6.2610    -3.0060     1.3980 hc         1 2SH       0.057450
     56 H18          3.9980    -1.9210     0.1760 hn         1 2SH       0.500000
@<TRIPOS>BOND
     1     1     2 ar  
     2     1    12 ar  
     3     1    29 1   
     4     2     3 ar  
     5     2    31 1   
     6     3     4 1   
     7     3    10 ar  
     8     4    13 1   
     9     4    15 1   
    10     4    32 1   
    11     5    18 1   
    12     5    19 1   
    13     5    33 1   
    14     5    34 1   
    15     6     8 ar  
    16     6    19 1   
    17     6    20 ar  
    18     7    21 ar  
    19     7    22 ar  
    20     7    54 1   
    21     8    22 ar  
    22     8    23 1   
    23     9    24 1   
    24     9    25 1   
    25     9    35 1   
    26     9    55 1   
    27    10    11 ar  
    28    10    36 1   
    29    11    12 ar  
    30    11    37 1   
    31    12    30 1   
    32    13    14 1   
    33    13    38 1   
    34    13    39 1   
    35    14    40 1   
    36    15    16 1   
    37    15    41 1   
    38    16    17 2   
    39    16    18 1   
    40    18    23 1   
    41    19    42 1   
    42    19    43 1   
    43    20    21 ar  
    44    20    44 1   
    45    23    45 1   
    46    23    46 1   
    47    24    28 1   
    48    24    47 1   
    49    24    54 1   
    50    25    26 1   
    51    25    48 1   
    52    25    49 1   
    53    26    27 1   
    54    27    28 1   
    55    27    50 1   
    56    27    51 1   
    57    28    52 1   
    58    28    53 1   
    59    54    56 1   
@<TRIPOS>SUBSTRUCTURE
     1 2SH         1 TEMP              0 ****  ****    0 ROOT
