@<TRIPOS>MOLECULE
2SH
   56    59     1     0     0
SMALL
bcc


@<TRIPOS>ATOM
      1 C4          -6.2030    -1.1340    -0.5430 ca         1 2SH      -0.029600
      2 C5          -5.4870     0.0040    -0.2030 ca         1 2SH      -0.089000
      3 C6          -4.1880    -0.0960     0.2790 ca         1 2SH      -0.115300
      4 C7          -3.4550     1.1650     0.6730 c3         1 2SH       0.175000
      5 C15          0.5460     3.4250    -0.9630 c6         1 2SH       0.109000
      6 C17          2.5050     2.3090     0.0250 ca         1 2SH      -0.368900
      7 C20          3.9240     0.0250    -0.0270 ca         1 2SH       0.911900
      8 C22          1.9550     1.0980    -0.3860 ca         1 2SH       0.476600
      9 C26          6.3800    -2.6750     0.6010 c6         1 2SH      -0.132400
     10 C1          -3.6140    -1.3600     0.4110 ca         1 2SH      -0.073000
     11 C2          -4.3210    -2.5000     0.0610 ca         1 2SH      -0.170000
     12 C3          -5.6120    -2.3780    -0.4100 ca         1 2SH       0.150900
     13 C9          -3.4240     1.3330     2.1910 c3         1 2SH       0.132400
     14 O10         -2.7100     0.2730     2.7730 oh         1 2SH      -0.594800
     15 N11         -2.1220     1.1580     0.0930 ns         1 2SH      -0.566900
     16 C12         -1.4270     2.3250    -0.0480 c          1 2SH       0.791100
     17 O13         -1.8790     3.3980     0.3400 o          1 2SH      -0.646100
     18 N14         -0.2040     2.2260    -0.6440 n          1 2SH      -0.496800
     19 C16          1.7120     3.5830    -0.0010 c6         1 2SH      -0.032100
     20 C18          3.8370     2.2390     0.4060 ca         1 2SH       0.482200
     21 N19          4.5520     1.1290     0.3910 nb         1 2SH      -0.766000
     22 N21          2.6480    -0.0280    -0.4210 nb         1 2SH      -0.784000
     23 C23          0.5170     0.9870    -0.8250 c6         1 2SH       0.046700
     24 C25          6.0300    -1.2430     0.2150 c6         1 2SH       0.247500
     25 C27          7.8830    -2.8150     0.7970 c6         1 2SH       0.133900
     26 O28          8.6080    -2.4140    -0.3440 os         1 2SH      -0.402600
     27 C29          8.3570    -1.0670    -0.6810 c6         1 2SH       0.133900
     28 C30          6.8870    -0.8200    -0.9800 c6         1 2SH      -0.132400
     29 CL1         -7.8150    -1.0190    -1.1390 cl         1 2SH      -0.076400
     30 F32         -6.3040    -3.4690    -0.7450 f          1 2SH      -0.124900
     31 H1          -5.9520     0.9740    -0.3230 ha         1 2SH       0.150000
     32 H2          -4.0230     2.0180     0.2870 h1         1 2SH       0.066700
     33 H3           0.9210     3.3380    -1.9870 h1         1 2SH       0.063200
     34 H4          -0.1120     4.2880    -0.9300 h1         1 2SH       0.063200
     35 H6           6.0500    -3.3620    -0.1850 hc         1 2SH       0.057450
     36 H7          -2.6080    -1.4730     0.7880 ha         1 2SH       0.157000
     37 H8          -3.8760    -3.4810     0.1610 ha         1 2SH       0.155000
     38 H9          -2.9740     2.3030     2.4270 h1         1 2SH       0.036700
     39 H10         -4.4650     1.3700     2.5360 h1         1 2SH       0.036700
     40 H11         -2.7560     0.3720     3.7280 ho         1 2SH       0.405000
     41 H12         -1.9380     0.4220    -0.5690 hn         1 2SH       0.312500
     42 H13          2.3430     4.4170    -0.3150 hc         1 2SH       0.060200
     43 H14          1.3330     3.8290     0.9950 hc         1 2SH       0.060200
     44 H15          4.3530     3.1390     0.7320 h4         1 2SH       0.020100
     45 H16          0.4950     0.6550    -1.8700 h1         1 2SH       0.071200
     46 H17          0.0660     0.1920    -0.2320 h1         1 2SH       0.071200
     47 H19          6.2680    -0.5880     1.0580 h1         1 2SH       0.078700
     48 H20          8.1940    -2.2270     1.6730 h1         1 2SH       0.047450
     49 H21          8.1440    -3.8550     0.9950 h1         1 2SH       0.047450
     50 H22          8.6810    -0.4030     0.1360 h1         1 2SH       0.047450
     51 H23          8.9730    -0.8350    -1.5510 h1         1 2SH       0.047450
     52 H24          6.5830    -1.3900    -1.8640 hc         1 2SH       0.057450
     53 H25          6.7340     0.2380    -1.2030 hc         1 2SH       0.057450
     54 N24          4.6120    -1.1360    -0.0370 nu         1 2SH      -0.862900
     55 H5           5.8670    -2.9620     1.5220 hc         1 2SH       0.057450
     56 H18          4.1500    -1.9170    -0.4750 hn         1 2SH       0.444800
@<TRIPOS>BOND
     1     1     2 ar  
     2     1    12 ar  
     3     1    29 1   
     4     2     3 ar  
     5     2    31 1   
     6     3     4 1   
     7     3    10 ar  
     8     4    13 1   
     9     4    15 1   
    10     4    32 1   
    11     5    18 1   
    12     5    19 1   
    13     5    33 1   
    14     5    34 1   
    15     6     8 ar  
    16     6    19 1   
    17     6    20 ar  
    18     7    21 ar  
    19     7    22 ar  
    20     7    54 1   
    21     8    22 ar  
    22     8    23 1   
    23     9    24 1   
    24     9    25 1   
    25     9    35 1   
    26     9    55 1   
    27    10    11 ar  
    28    10    36 1   
    29    11    12 ar  
    30    11    37 1   
    31    12    30 1   
    32    13    14 1   
    33    13    38 1   
    34    13    39 1   
    35    14    40 1   
    36    15    16 1   
    37    15    41 1   
    38    16    17 2   
    39    16    18 1   
    40    18    23 1   
    41    19    42 1   
    42    19    43 1   
    43    20    21 ar  
    44    20    44 1   
    45    23    45 1   
    46    23    46 1   
    47    24    28 1   
    48    24    47 1   
    49    24    54 1   
    50    25    26 1   
    51    25    48 1   
    52    25    49 1   
    53    26    27 1   
    54    27    28 1   
    55    27    50 1   
    56    27    51 1   
    57    28    52 1   
    58    28    53 1   
    59    54    56 1   
@<TRIPOS>SUBSTRUCTURE
     1 2SH         1 TEMP              0 ****  ****    0 ROOT
