@<TRIPOS>MOLECULE
2SI
   25    25     1     0     0
SMALL
abcg2


@<TRIPOS>ATOM
      1 C1           3.6870    -2.9080     0.2050 c6         1 2SI       0.362300
      2 C2           3.8670    -2.9580     1.7230 c6         1 2SI       0.185300
      3 C3           3.3540    -1.6730     2.3880 c6         1 2SI       0.142300
      4 C4           1.9570    -1.2880     1.8810 c6         1 2SI       0.160300
      5 C5           1.9040    -1.3360     0.3550 c6         1 2SI      -0.008700
      6 C6           0.4860    -1.1670    -0.2470 c          1 2SI       0.736000
      7 O1           4.6170    -1.9790    -0.2790 oh         1 2SI      -0.720000
      8 O2           3.1370    -4.0880     2.1740 os         1 2SI      -0.552700
      9 O3           4.2750    -0.6170     2.2090 oh         1 2SI      -0.690000
     10 O5           2.3770    -2.5840    -0.1490 os         1 2SI      -0.437000
     11 O61         -0.4920    -1.3750     0.5150 o          1 2SI      -0.724500
     12 O62          0.4300    -0.8530    -1.4410 o          1 2SI      -0.724500
     13 S            3.8710    -5.0930     3.2420 s6         1 2SI       1.503300
     14 O1S          5.0920    -5.5560     2.5770 o          1 2SI      -0.722200
     15 O2S          4.1280    -4.2900     4.4410 o          1 2SI      -0.722200
     16 O3S          2.8380    -6.1140     3.4000 o          1 2SI      -0.722200
     17 O4           1.0080    -2.1280     2.4780 oh         1 2SI      -0.745000
     18 H1           3.8640    -3.9010    -0.2210 h2         1 2SI       0.065700
     19 H2           4.9360    -3.0680     1.9390 h1         1 2SI       0.049700
     20 H3           3.2950    -1.8490     3.4650 h1         1 2SI       0.100700
     21 H4           1.7940    -0.2340     2.1670 h1         1 2SI       0.003700
     22 H5           2.5180    -0.5140    -0.0340 h1         1 2SI       0.014700
     23 H1O1         4.5520    -1.9340    -1.2400 ho         1 2SI       0.439000
     24 H3O1         4.5370    -0.5820     1.2820 ho         1 2SI       0.446000
     25 H4O1         0.2080    -1.9780     1.9220 ho         1 2SI       0.560000
@<TRIPOS>BOND
     1     1     2 1   
     2     1     7 1   
     3     1    10 1   
     4     1    18 1   
     5     2     3 1   
     6     2     8 1   
     7     2    19 1   
     8     3     4 1   
     9     3     9 1   
    10     3    20 1   
    11     4     5 1   
    12     4    17 1   
    13     4    21 1   
    14     5     6 1   
    15     5    10 1   
    16     5    22 1   
    17     6    11 1   
    18     6    12 1   
    19     7    23 1   
    20     8    13 1   
    21     9    24 1   
    22    13    14 1   
    23    13    15 1   
    24    13    16 1   
    25    17    25 1   
@<TRIPOS>SUBSTRUCTURE
     1 2SI         1 TEMP              0 ****  ****    0 ROOT
