@<TRIPOS>MOLECULE
2SI
   25    25     1     0     0
SMALL
No Charge or Current Charge


@<TRIPOS>ATOM
      1 C1           3.6650    -2.9980     0.3780 c6         1 2SI       0.362300
      2 C2           3.8220    -2.8350     1.9390 c6         1 2SI       0.185300
      3 C3           3.3740    -1.3880     2.3450 c6         1 2SI       0.142300
      4 C4           1.9070    -1.1290     1.8520 c6         1 2SI       0.160300
      5 C5           1.8440    -1.3330     0.3080 c6         1 2SI      -0.008700
      6 C6           0.4120    -0.9890    -0.2350 c          1 2SI       0.736000
      7 O1           4.5460    -2.1300    -0.3480 oh         1 2SI      -0.720000
      8 O2           2.9980    -3.8080     2.6360 os         1 2SI      -0.552700
      9 O3           4.2850    -0.4080     1.7990 oh         1 2SI      -0.690000
     10 O5           2.3180    -2.6800    -0.0410 os         1 2SI      -0.437000
     11 O61         -0.2800    -1.9250    -0.6240 o          1 2SI      -0.724500
     12 O62          0.3150     0.0940    -0.8010 o          1 2SI      -0.724500
     13 S            3.7260    -5.1680     3.1970 s6         1 2SI       1.503300
     14 O1S          4.4190    -5.7150     2.0240 o          1 2SI      -0.722200
     15 O2S          4.6230    -4.6780     4.2520 o          1 2SI      -0.722200
     16 O3S          2.6070    -5.9870     3.6830 o          1 2SI      -0.722200
     17 O4           1.0130    -2.0340     2.5180 oh         1 2SI      -0.745000
     18 H1           3.8840    -4.0420     0.1080 h2         1 2SI       0.065700
     19 H2           4.8770    -2.9680     2.2210 h1         1 2SI       0.049700
     20 H3           3.3820    -1.3230     3.4440 h1         1 2SI       0.100700
     21 H4           1.6250    -0.0920     2.0860 h1         1 2SI       0.003700
     22 H5           2.5190    -0.6040    -0.1630 h1         1 2SI       0.014700
     23 H1O1         4.3130    -2.2720    -1.2910 ho         1 2SI       0.439000
     24 H3O1         4.5180    -0.7640     0.9020 ho         1 2SI       0.446000
     25 H4O1         1.5260    -2.8890     2.5600 ho         1 2SI       0.560000
@<TRIPOS>BOND
     1     1     2 1   
     2     1     7 1   
     3     1    10 1   
     4     1    18 1   
     5     2     3 1   
     6     2     8 1   
     7     2    19 1   
     8     3     4 1   
     9     3     9 1   
    10     3    20 1   
    11     4     5 1   
    12     4    17 1   
    13     4    21 1   
    14     5     6 1   
    15     5    10 1   
    16     5    22 1   
    17     6    11 1   
    18     6    12 1   
    19     7    23 1   
    20     8    13 1   
    21     9    24 1   
    22    13    14 1   
    23    13    15 1   
    24    13    16 1   
    25    17    25 1   
@<TRIPOS>SUBSTRUCTURE
     1 2SI         1 TEMP              0 ****  ****    0 ROOT
