@<TRIPOS>MOLECULE
2SJ
   51    53     1     0     0
SMALL
No Charge or Current Charge


@<TRIPOS>ATOM
      1 O4           6.8670    54.3690     4.6630 o          1 2SJ      -0.598100
      2 C12          6.2890    53.2960     4.6050 c          1 2SJ       0.602100
      3 C13          6.2020    52.4990     3.3020 c3         1 2SJ      -0.176100
      4 N1           5.6550    52.8020     5.7240 ns         1 2SJ      -0.517900
      5 C11          5.0860    51.4560     5.8800 c3         1 2SJ       0.143900
      6 C14          3.7050    51.2600     5.2520 cc         1 2SJ       0.011800
      7 C15          2.8830    52.3600     5.0810 cd         1 2SJ      -0.297200
      8 C10          5.0870    51.0490     7.3670 c3         1 2SJ      -0.077400
      9 C9           4.4050    49.6870     7.6130 c3         1 2SJ      -0.032100
     10 C8           4.7860    48.6590     6.5490 ca         1 2SJ      -0.028300
     11 C7           5.6080    47.5820     6.9160 ca         1 2SJ      -0.193000
     12 C5           5.9720    46.5820     5.9900 ca         1 2SJ       0.137100
     13 C3           5.5070    46.6820     4.6460 ca         1 2SJ       0.055100
     14 C1           4.6910    47.7790     4.2780 ca         1 2SJ       0.133100
     15 O1           4.3180    47.8850     2.9500 os         1 2SJ      -0.353100
     16 C2           4.8340    48.9580     2.1440 c3         1 2SJ       0.149900
     17 O2           5.8150    45.7740     3.6300 os         1 2SJ      -0.334100
     18 C4           6.6330    44.6000     3.7870 c3         1 2SJ       0.149900
     19 O3           6.7780    45.5250     6.3860 os         1 2SJ      -0.332100
     20 C6           7.2790    45.3730     7.7270 c3         1 2SJ       0.144900
     21 C22          4.2980    48.7690     5.2230 ca         1 2SJ      -0.116800
     22 C21          3.3880    49.8910     4.8580 cc         1 2SJ      -0.066200
     23 C20          2.2130    49.3940     4.2970 cd         1 2SJ      -0.070000
     24 C19          1.0340    50.0810     3.8480 cd         1 2SJ      -0.225000
     25 C17          0.7570    51.4220     3.9090 cc         1 2SJ       0.072900
     26 C16          1.5600    52.5350     4.4800 c          1 2SJ       0.525500
     27 O5           1.0920    53.6720     4.4510 o          1 2SJ      -0.594100
     28 O6          -0.4280    51.8660     3.4150 oh         1 2SJ      -0.522100
     29 H1           6.6730    53.0220     2.4620 hc         1 2SJ       0.062033
     30 H2           6.6490    51.5100     3.4480 hc         1 2SJ       0.062033
     31 H3           5.1540    52.2630     3.0880 hc         1 2SJ       0.062033
     32 H4           5.7180    53.3880     6.5470 hn         1 2SJ       0.318500
     33 H5           5.7850    50.7790     5.3720 h1         1 2SJ       0.072700
     34 H6           3.2340    53.3210     5.4360 ha         1 2SJ       0.205000
     35 H7           6.1250    51.0010     7.7190 hc         1 2SJ       0.055700
     36 H8           4.5780    51.8140     7.9650 hc         1 2SJ       0.055700
     37 H9           3.3170    49.8230     7.6220 hc         1 2SJ       0.060200
     38 H10          4.6640    49.3360     8.6190 hc         1 2SJ       0.060200
     39 H11          5.9540    47.5350     7.9440 ha         1 2SJ       0.123000
     40 H12          4.4830    48.8580     1.1090 h1         1 2SJ       0.039367
     41 H13          4.5060    49.9350     2.5180 h1         1 2SJ       0.039367
     42 H14          5.9310    48.9420     2.1370 h1         1 2SJ       0.039367
     43 H15          6.7100    44.0650     2.8320 h1         1 2SJ       0.037367
     44 H16          7.6490    44.8690     4.1020 h1         1 2SJ       0.037367
     45 H17          6.1960    43.9120     4.5210 h1         1 2SJ       0.037367
     46 H18          7.8900    44.4640     7.8010 h1         1 2SJ       0.045367
     47 H19          7.9080    46.2270     8.0080 h1         1 2SJ       0.045367
     48 H20          6.4540    45.2860     8.4450 h1         1 2SJ       0.045367
     49 H21          2.1500    48.3160     4.1680 ha         1 2SJ       0.199000
     50 H22          0.2590    49.4560     3.4120 ha         1 2SJ       0.202000
     51 H23         -0.4180    52.8410     3.5790 ho         1 2SJ       0.504000
@<TRIPOS>BOND
     1     1     2 2   
     2     2     3 1   
     3     2     4 1   
     4     3    29 1   
     5     3    30 1   
     6     3    31 1   
     7     4     5 1   
     8     4    32 1   
     9     5     6 1   
    10     5     8 1   
    11     5    33 1   
    12     6     7 2   
    13     6    22 1   
    14     7    26 1   
    15     7    34 1   
    16     8     9 1   
    17     8    35 1   
    18     8    36 1   
    19     9    10 1   
    20     9    37 1   
    21     9    38 1   
    22    10    11 ar  
    23    10    21 ar  
    24    11    12 ar  
    25    11    39 1   
    26    12    13 ar  
    27    12    19 1   
    28    13    14 ar  
    29    13    17 1   
    30    14    15 1   
    31    14    21 ar  
    32    15    16 1   
    33    16    40 1   
    34    16    41 1   
    35    16    42 1   
    36    17    18 1   
    37    18    43 1   
    38    18    44 1   
    39    18    45 1   
    40    19    20 1   
    41    20    46 1   
    42    20    47 1   
    43    20    48 1   
    44    21    22 1   
    45    22    23 2   
    46    23    24 1   
    47    23    49 1   
    48    24    25 2   
    49    24    50 1   
    50    25    26 1   
    51    25    28 1   
    52    26    27 2   
    53    28    51 1   
@<TRIPOS>SUBSTRUCTURE
     1 2SJ         1 TEMP              0 ****  ****    0 ROOT
