@<TRIPOS>MOLECULE
2SJ
   51    53     1     0     0
SMALL
abcg2


@<TRIPOS>ATOM
      1 O4           6.8310    54.1520     4.4600 o          1 2SJ      -0.598100
      2 C12          6.3690    53.0110     4.5120 c          1 2SJ       0.602100
      3 C13          6.5030    52.0430     3.3630 c3         1 2SJ      -0.176100
      4 N1           5.7140    52.5790     5.6160 ns         1 2SJ      -0.517900
      5 C11          5.0950    51.2840     5.8130 c3         1 2SJ       0.143900
      6 C14          3.6890    51.1370     5.2110 cc         1 2SJ       0.011800
      7 C15          2.9960    52.2970     4.9760 cd         1 2SJ      -0.297200
      8 C10          5.0890    50.9690     7.3180 c3         1 2SJ      -0.077400
      9 C9           4.3270    49.6800     7.6560 c3         1 2SJ      -0.032100
     10 C8           4.6490    48.5790     6.6810 ca         1 2SJ      -0.028300
     11 C7           5.4390    47.5020     7.0710 ca         1 2SJ      -0.193000
     12 C5           5.7740    46.5010     6.1630 ca         1 2SJ       0.137100
     13 C3           5.3300    46.5960     4.8340 ca         1 2SJ       0.055100
     14 C1           4.5360    47.6750     4.4470 ca         1 2SJ       0.133100
     15 O1           4.1020    47.7040     3.1460 os         1 2SJ      -0.353100
     16 C2           4.7140    48.6980     2.3130 c3         1 2SJ       0.149900
     17 O2           5.6360    45.6080     3.9340 os         1 2SJ      -0.334100
     18 C4           6.9640    45.6830     3.3930 c3         1 2SJ       0.149900
     19 O3           6.5200    45.4110     6.4650 os         1 2SJ      -0.332100
     20 C6           7.0280    45.2860     7.7940 c3         1 2SJ       0.144900
     21 C22          4.1720    48.6740     5.3670 ca         1 2SJ      -0.116800
     22 C21          3.2650    49.7920     4.9760 cc         1 2SJ      -0.066200
     23 C20          2.0560    49.4210     4.4250 cd         1 2SJ      -0.070000
     24 C19          0.9770    50.1780     3.9500 cd         1 2SJ      -0.225000
     25 C17          0.8070    51.5370     3.9350 cc         1 2SJ       0.072900
     26 C16          1.7120    52.5750     4.4260 c          1 2SJ       0.525500
     27 O5           1.2890    53.7540     4.3150 o          1 2SJ      -0.594100
     28 O6          -0.3230    52.0400     3.4280 oh         1 2SJ      -0.522100
     29 H1           7.0700    52.5190     2.5690 hc         1 2SJ       0.062033
     30 H2           7.0100    51.1280     3.6740 hc         1 2SJ       0.062033
     31 H3           5.5190    51.7600     2.9860 hc         1 2SJ       0.062033
     32 H4           5.6180    53.2650     6.3530 hn         1 2SJ       0.318500
     33 H5           5.7210    50.5410     5.3240 h1         1 2SJ       0.072700
     34 H6           3.5150    53.2120     5.2340 ha         1 2SJ       0.205000
     35 H7           6.1300    50.8880     7.6390 hc         1 2SJ       0.055700
     36 H8           4.6390    51.8080     7.8560 hc         1 2SJ       0.055700
     37 H9           3.2540    49.8820     7.6370 hc         1 2SJ       0.060200
     38 H10          4.5780    49.3700     8.6700 hc         1 2SJ       0.060200
     39 H11          5.7810    47.4500     8.0940 ha         1 2SJ       0.123000
     40 H12          4.3580    48.5120     1.3020 h1         1 2SJ       0.039367
     41 H13          4.4250    49.7040     2.6220 h1         1 2SJ       0.039367
     42 H14          5.8020    48.6070     2.3460 h1         1 2SJ       0.039367
     43 H15          7.0730    44.8310     2.7240 h1         1 2SJ       0.037367
     44 H16          7.0950    46.6110     2.8310 h1         1 2SJ       0.037367
     45 H17          7.7100    45.6260     4.1880 h1         1 2SJ       0.037367
     46 H18          7.5920    44.3570     7.8080 h1         1 2SJ       0.045367
     47 H19          7.6860    46.1220     8.0400 h1         1 2SJ       0.045367
     48 H20          6.2140    45.2350     8.5200 h1         1 2SJ       0.045367
     49 H21          1.9070    48.3530     4.3330 ha         1 2SJ       0.199000
     50 H22          0.1460    49.6100     3.5450 ha         1 2SJ       0.202000
     51 H23         -0.2200    53.0160     3.5410 ho         1 2SJ       0.504000
@<TRIPOS>BOND
     1     1     2 2   
     2     2     3 1   
     3     2     4 1   
     4     3    29 1   
     5     3    30 1   
     6     3    31 1   
     7     4     5 1   
     8     4    32 1   
     9     5     6 1   
    10     5     8 1   
    11     5    33 1   
    12     6     7 2   
    13     6    22 1   
    14     7    26 1   
    15     7    34 1   
    16     8     9 1   
    17     8    35 1   
    18     8    36 1   
    19     9    10 1   
    20     9    37 1   
    21     9    38 1   
    22    10    11 ar  
    23    10    21 ar  
    24    11    12 ar  
    25    11    39 1   
    26    12    13 ar  
    27    12    19 1   
    28    13    14 ar  
    29    13    17 1   
    30    14    15 1   
    31    14    21 ar  
    32    15    16 1   
    33    16    40 1   
    34    16    41 1   
    35    16    42 1   
    36    17    18 1   
    37    18    43 1   
    38    18    44 1   
    39    18    45 1   
    40    19    20 1   
    41    20    46 1   
    42    20    47 1   
    43    20    48 1   
    44    21    22 1   
    45    22    23 2   
    46    23    24 1   
    47    23    49 1   
    48    24    25 2   
    49    24    50 1   
    50    25    26 1   
    51    25    28 1   
    52    26    27 2   
    53    28    51 1   
@<TRIPOS>SUBSTRUCTURE
     1 2SJ         1 TEMP              0 ****  ****    0 ROOT
