@<TRIPOS>MOLECULE
2SK
   37    38     1     0     0
SMALL
No Charge or Current Charge


@<TRIPOS>ATOM
      1 C5          -0.7800    -0.0710    -0.6740 c5         1 2SK       0.196500
      2 N5           0.6160     0.1050    -0.1700 n7         1 2SK      -0.845400
      3 C4          -1.2510    -1.5720    -0.6580 c5         1 2SK       0.180300
      4 O4          -1.0470    -2.2650     0.5870 oh         1 2SK      -0.684000
      5 C3          -2.7780    -1.3510    -0.9170 c5         1 2SK       0.078300
      6 O3          -3.5760    -2.4820    -0.5020 oh         1 2SK      -0.662000
      7 C2          -3.1480    -0.0410    -0.1210 c5         1 2SK       0.155300
      8 O2          -4.0040    -0.3790     0.9710 oh         1 2SK      -0.711000
      9 C1          -1.7720     0.5390     0.3550 c5         1 2SK       0.056300
     10 S6          -1.7670     2.4060     0.1760 ss         1 2SK      -0.447000
     11 C7          -2.9030     2.9020     1.5520 c3         1 2SK       0.050900
     12 C8           1.6850    -0.3800    -1.0580 c3         1 2SK       0.210100
     13 C9           3.0510    -0.0770    -0.4570 ca         1 2SK      -0.092300
     14 C14          3.6000    -0.9280     0.5230 ca         1 2SK      -0.093500
     15 C13          4.8630    -0.6530     1.0760 ca         1 2SK      -0.116500
     16 C10          3.7800     1.0540    -0.8760 ca         1 2SK      -0.093500
     17 C11          5.0430     1.3290    -0.3230 ca         1 2SK      -0.116500
     18 C12          5.5850     0.4750     0.6530 ca         1 2SK      -0.108000
     19 H5          -0.9040     0.3800    -1.6690 h1         1 2SK       0.028700
     20 HN5          0.7750     1.1070    -0.0180 hn         1 2SK       0.432000
     21 H4          -0.7930    -2.1360    -1.4820 h1         1 2SK       0.044700
     22 HO4         -1.8860    -2.7650     0.7210 ho         1 2SK       0.510000
     23 H3          -2.9350    -1.1630    -1.9890 h1         1 2SK       0.047700
     24 HO3         -3.6710    -3.0800    -1.2810 ho         1 2SK       0.457000
     25 H2          -3.6550     0.6630    -0.7970 h1         1 2SK       0.054700
     26 HO2         -4.2190    -1.3280     0.7740 ho         1 2SK       0.520000
     27 H1          -1.5290     0.2330     1.3820 h1         1 2SK       0.116700
     28 H71         -2.9760     3.9960     1.5970 h1         1 2SK       0.064033
     29 H72         -3.9040     2.4840     1.3810 h1         1 2SK       0.064033
     30 H73         -2.5170     2.5280     2.5080 h1         1 2SK       0.064033
     31 H81          1.5960    -1.4640    -1.2130 h1         1 2SK       0.034200
     32 H82          1.6100     0.0990    -2.0440 h1         1 2SK       0.034200
     33 H14          3.0430    -1.8020     0.8560 ha         1 2SK       0.119500
     34 H13          5.2800    -1.3140     1.8320 ha         1 2SK       0.111000
     35 H10          3.3680     1.7210    -1.6310 ha         1 2SK       0.119500
     36 H11          5.6010     2.2040    -0.6500 ha         1 2SK       0.111000
     37 H12          6.5620     0.6880     1.0810 ha         1 2SK       0.110000
@<TRIPOS>BOND
     1     1     2 1   
     2     1     3 1   
     3     1     9 1   
     4     1    19 1   
     5     2    12 1   
     6     2    20 1   
     7     3     4 1   
     8     3     5 1   
     9     3    21 1   
    10     4    22 1   
    11     5     6 1   
    12     5     7 1   
    13     5    23 1   
    14     6    24 1   
    15     7     8 1   
    16     7     9 1   
    17     7    25 1   
    18     8    26 1   
    19     9    10 1   
    20     9    27 1   
    21    10    11 1   
    22    11    28 1   
    23    11    29 1   
    24    11    30 1   
    25    12    13 1   
    26    12    31 1   
    27    12    32 1   
    28    13    14 ar  
    29    13    16 ar  
    30    14    15 ar  
    31    14    33 1   
    32    15    18 ar  
    33    15    34 1   
    34    16    17 ar  
    35    16    35 1   
    36    17    18 ar  
    37    17    36 1   
    38    18    37 1   
@<TRIPOS>SUBSTRUCTURE
     1 2SK         1 TEMP              0 ****  ****    0 ROOT
