@<TRIPOS>MOLECULE
2SK
   37    38     1     0     0
SMALL
bcc


@<TRIPOS>ATOM
      1 C5          -0.7730    -0.0180    -0.6600 c5         1 2SK       0.196500
      2 N5           0.5620     0.2040    -0.1640 n7         1 2SK      -0.790200
      3 C4          -1.1800    -1.4860    -0.7740 c5         1 2SK       0.157100
      4 O4          -0.8360    -2.1520     0.4120 oh         1 2SK      -0.561800
      5 C3          -2.6900    -1.3480    -0.9520 c5         1 2SK       0.055100
      6 O3          -3.3440    -2.5720    -0.7290 oh         1 2SK      -0.599800
      7 C2          -3.1200    -0.2410     0.0470 c5         1 2SK       0.132100
      8 O2          -3.6000    -0.7780     1.2530 oh         1 2SK      -0.588800
      9 C1          -1.8300     0.5650     0.2890 c5         1 2SK       0.008400
     10 S6          -1.9620     2.3530     0.0370 ss         1 2SK      -0.351200
     11 C7          -2.8580     2.8230     1.5340 c3         1 2SK       0.003000
     12 C8           1.6080    -0.1560    -1.1030 c3         1 2SK       0.210100
     13 C9           2.9640     0.0250    -0.4770 ca         1 2SK      -0.092300
     14 C14          3.2720    -0.6160     0.7220 ca         1 2SK      -0.111500
     15 C13          4.5200    -0.4630     1.3050 ca         1 2SK      -0.134500
     16 C10          3.9290     0.8300    -1.0720 ca         1 2SK      -0.111500
     17 C11          5.1820     0.9880    -0.4900 ca         1 2SK      -0.134500
     18 C12          5.4810     0.3400     0.7000 ca         1 2SK      -0.126000
     19 H5          -0.9250     0.4130    -1.6660 h1         1 2SK       0.028700
     20 HN5          0.6590     1.1850     0.0730 hn         1 2SK       0.376800
     21 H4          -0.7280    -1.9700    -1.6510 h1         1 2SK       0.044700
     22 HO4         -1.2350    -3.0280     0.3880 ho         1 2SK       0.411000
     23 H3          -2.8690    -0.9800    -1.9680 h1         1 2SK       0.047700
     24 HO3         -4.1610    -2.5920    -1.2370 ho         1 2SK       0.418000
     25 H2          -3.8880     0.3930    -0.4160 h1         1 2SK       0.054700
     26 HO2         -3.8940    -1.6780     1.0610 ho         1 2SK       0.421000
     27 H1          -1.5020     0.3930     1.3170 h1         1 2SK       0.116700
     28 H71         -2.9730     3.9050     1.5220 h1         1 2SK       0.064033
     29 H72         -3.8490     2.3710     1.5640 h1         1 2SK       0.064033
     30 H73         -2.3030     2.5390     2.4260 h1         1 2SK       0.064033
     31 H81          1.4800    -1.2080    -1.3730 h1         1 2SK       0.034200
     32 H82          1.5580     0.4110    -2.0440 h1         1 2SK       0.034200
     33 H14          2.5240    -1.2390     1.1980 ha         1 2SK       0.137500
     34 H13          4.7470    -0.9690     2.2350 ha         1 2SK       0.129000
     35 H10          3.7000     1.3400    -2.0010 ha         1 2SK       0.137500
     36 H11          5.9210     1.6200    -0.9660 ha         1 2SK       0.129000
     37 H12          6.4560     0.4600     1.1550 ha         1 2SK       0.128000
@<TRIPOS>BOND
     1     1     2 1   
     2     1     3 1   
     3     1     9 1   
     4     1    19 1   
     5     2    12 1   
     6     2    20 1   
     7     3     4 1   
     8     3     5 1   
     9     3    21 1   
    10     4    22 1   
    11     5     6 1   
    12     5     7 1   
    13     5    23 1   
    14     6    24 1   
    15     7     8 1   
    16     7     9 1   
    17     7    25 1   
    18     8    26 1   
    19     9    10 1   
    20     9    27 1   
    21    10    11 1   
    22    11    28 1   
    23    11    29 1   
    24    11    30 1   
    25    12    13 1   
    26    12    31 1   
    27    12    32 1   
    28    13    14 ar  
    29    13    16 ar  
    30    14    15 ar  
    31    14    33 1   
    32    15    18 ar  
    33    15    34 1   
    34    16    17 ar  
    35    16    35 1   
    36    17    18 ar  
    37    17    36 1   
    38    18    37 1   
@<TRIPOS>SUBSTRUCTURE
     1 2SK         1 TEMP              0 ****  ****    0 ROOT
