@<TRIPOS>MOLECULE
2SL
   18    17     1     0     0
SMALL
No Charge or Current Charge


@<TRIPOS>ATOM
      1 C14        -15.6920     9.4160     7.4260 c3         1 2SL      -0.125100
      2 C15        -16.6750    10.4950     7.9170 c3         1 2SL       0.165300
      3 C16        -17.7740     9.9140     8.8400 c3         1 2SL      -0.109400
      4 C17        -18.8530    10.9400     9.2640 c3         1 2SL      -0.071400
      5 C18        -19.9590    10.3220    10.1420 c3         1 2SL      -0.090100
      6 O13        -15.9340    11.4970     8.6200 oh         1 2SL      -0.657000
      7 H14        -14.9300     9.8560     6.7710 hc         1 2SL       0.040367
      8 H14A       -15.1860     8.9290     8.2680 hc         1 2SL       0.040367
      9 H14B       -16.2240     8.6450     6.8540 hc         1 2SL       0.040367
     10 H15        -17.1620    10.9370     7.0350 h1         1 2SL       0.069700
     11 H16        -18.2690     9.0870     8.3150 hc         1 2SL       0.040200
     12 H16A       -17.3110     9.4820     9.7360 hc         1 2SL       0.040200
     13 H17        -18.3840    11.7640     9.8160 hc         1 2SL       0.044200
     14 H17A       -19.3120    11.3760     8.3680 hc         1 2SL       0.044200
     15 H18        -19.5360     9.9060    11.0640 hc         1 2SL       0.031367
     16 H18A       -20.6980    11.0840    10.4170 hc         1 2SL       0.031367
     17 H18B       -20.4780     9.5190     9.6050 hc         1 2SL       0.031367
     18 HO13       -15.5480    11.0620     9.4100 ho         1 2SL       0.436000
@<TRIPOS>BOND
     1     1     2 1   
     2     1     7 1   
     3     1     8 1   
     4     1     9 1   
     5     2     3 1   
     6     2     6 1   
     7     2    10 1   
     8     3     4 1   
     9     3    11 1   
    10     3    12 1   
    11     4     5 1   
    12     4    13 1   
    13     4    14 1   
    14     5    15 1   
    15     5    16 1   
    16     5    17 1   
    17     6    18 1   
@<TRIPOS>SUBSTRUCTURE
     1 2SL         1 TEMP              0 ****  ****    0 ROOT
