@<TRIPOS>MOLECULE
2SL
   18    17     1     0     0
SMALL
abcg2


@<TRIPOS>ATOM
      1 C14        -15.7230     9.4000     7.4670 c3         1 2SL      -0.125100
      2 C15        -16.6880    10.4820     7.9310 c3         1 2SL       0.165300
      3 C16        -17.7820     9.9120     8.8270 c3         1 2SL      -0.109400
      4 C17        -18.8150    10.9370     9.2810 c3         1 2SL      -0.071400
      5 C18        -19.9250    10.3110    10.1160 c3         1 2SL      -0.090100
      6 O13        -15.9990    11.5550     8.5530 oh         1 2SL      -0.657000
      7 H14        -14.9430     9.8160     6.8270 hc         1 2SL       0.040367
      8 H14A       -15.2400     8.9140     8.3190 hc         1 2SL       0.040367
      9 H14B       -16.2450     8.6290     6.9000 hc         1 2SL       0.040367
     10 H15        -17.1640    10.9260     7.0500 h1         1 2SL       0.069700
     11 H16        -18.2880     9.1070     8.2830 hc         1 2SL       0.040200
     12 H16A       -17.3220     9.4400     9.7040 hc         1 2SL       0.040200
     13 H17        -18.3250    11.7240     9.8580 hc         1 2SL       0.044200
     14 H17A       -19.2500    11.4250     8.4030 hc         1 2SL       0.044200
     15 H18        -19.5240     9.8340    11.0120 hc         1 2SL       0.031367
     16 H18A       -20.6520    11.0580    10.4380 hc         1 2SL       0.031367
     17 H18B       -20.4640     9.5480     9.5510 hc         1 2SL       0.031367
     18 HO13       -15.5760    11.2130     9.3480 ho         1 2SL       0.436000
@<TRIPOS>BOND
     1     1     2 1   
     2     1     7 1   
     3     1     8 1   
     4     1     9 1   
     5     2     3 1   
     6     2     6 1   
     7     2    10 1   
     8     3     4 1   
     9     3    11 1   
    10     3    12 1   
    11     4     5 1   
    12     4    13 1   
    13     4    14 1   
    14     5    15 1   
    15     5    16 1   
    16     5    17 1   
    17     6    18 1   
@<TRIPOS>SUBSTRUCTURE
     1 2SL         1 TEMP              0 ****  ****    0 ROOT
