@<TRIPOS>MOLECULE
2SM
   38    39     1     0     0
SMALL
No Charge or Current Charge


@<TRIPOS>ATOM
      1 C24         -3.5490    -3.8050    -0.7200 c3         1 2SM       0.149900
      2 O23         -3.6010    -2.3800    -0.9220 os         1 2SM      -0.417100
      3 C22         -2.5090    -1.6340    -0.5550 c          1 2SM       0.614700
      4 O25         -1.4560    -2.1290    -0.1700 o          1 2SM      -0.504000
      5 C4          -2.6600    -0.1640    -0.8960 ca         1 2SM      -0.041600
      6 C3          -3.2190     0.1720    -2.1510 ca         1 2SM      -0.091000
      7 C2          -3.3560     1.5100    -2.5480 ca         1 2SM      -0.064000
      8 C1          -2.9350     2.5400    -1.6960 ca         1 2SM      -0.109000
      9 C6          -2.3870     2.2350    -0.4410 ca         1 2SM       0.000000
     10 C5          -2.2510     0.8910    -0.0220 ca         1 2SM      -0.250500
     11 S7          -1.5880     0.5710     1.6370 sy         1 2SM       1.193300
     12 O18         -1.4170     1.8480     2.3390 o          1 2SM      -0.521500
     13 O17         -2.3410    -0.5310     2.2450 o          1 2SM      -0.521500
     14 N8          -0.0560    -0.0380     1.3820 ns         1 2SM      -0.586300
     15 C9           0.9610     0.5760     0.7420 c          1 2SM       0.693100
     16 O20          0.9230     1.7380     0.3730 o          1 2SM      -0.548100
     17 N10          2.0380    -0.2610     0.5670 ns         1 2SM      -0.316900
     18 C11          3.2820    -0.0300    -0.0520 ca         1 2SM       0.267900
     19 N12          4.2730    -0.8340     0.3780 nb         1 2SM      -0.242000
     20 C13          5.4790    -0.6530    -0.1980 ca         1 2SM       0.165300
     21 C28          6.6100    -1.5490     0.2710 c3         1 2SM      -0.153400
     22 C14          5.6710     0.3200    -1.1950 ca         1 2SM      -0.256000
     23 C15          4.5640     1.1010    -1.5720 ca         1 2SM       0.139900
     24 N16          3.3560     0.9270    -1.0000 nb         1 2SM      -0.176000
     25 H24         -2.7290    -4.2530    -1.2960 h1         1 2SM       0.054367
     26 H24A        -3.4010    -4.0450     0.3410 h1         1 2SM       0.054367
     27 H24B        -4.4870    -4.2710    -1.0460 h1         1 2SM       0.054367
     28 H3          -3.5370    -0.6140    -2.8330 ha         1 2SM       0.127000
     29 H2          -3.7820     1.7480    -3.5200 ha         1 2SM       0.122000
     30 H1          -3.0370     3.5770    -2.0060 ha         1 2SM       0.126000
     31 H6          -2.0750     3.0560     0.2040 ha         1 2SM       0.157000
     32 HN8         -0.0160    -1.0240     1.5710 hn         1 2SM       0.355500
     33 HN10         1.9440    -1.1810     0.9720 hn         1 2SM       0.178000
     34 H28          6.5460    -2.5350    -0.2040 hc         1 2SM       0.058367
     35 H28A         7.5880    -1.1200     0.0240 hc         1 2SM       0.058367
     36 H28B         6.5780    -1.6950     1.3570 hc         1 2SM       0.058367
     37 H14          6.6400     0.4660    -1.6650 ha         1 2SM       0.137000
     38 H15          4.6430     1.8700    -2.3380 h4         1 2SM       0.030100
@<TRIPOS>BOND
     1     1     2 1   
     2     1    25 1   
     3     1    26 1   
     4     1    27 1   
     5     2     3 1   
     6     3     4 2   
     7     3     5 1   
     8     5     6 ar  
     9     5    10 ar  
    10     6     7 ar  
    11     6    28 1   
    12     7     8 ar  
    13     7    29 1   
    14     8     9 ar  
    15     8    30 1   
    16     9    10 ar  
    17     9    31 1   
    18    10    11 1   
    19    11    12 2   
    20    11    13 2   
    21    11    14 1   
    22    14    15 1   
    23    14    32 1   
    24    15    16 2   
    25    15    17 1   
    26    17    18 1   
    27    17    33 1   
    28    18    19 ar  
    29    18    24 ar  
    30    19    20 ar  
    31    20    21 1   
    32    20    22 ar  
    33    21    34 1   
    34    21    35 1   
    35    21    36 1   
    36    22    23 ar  
    37    22    37 1   
    38    23    24 ar  
    39    23    38 1   
@<TRIPOS>SUBSTRUCTURE
     1 2SM         1 TEMP              0 ****  ****    0 ROOT
