@<TRIPOS>MOLECULE
2SM
   38    39     1     0     0
SMALL
abcg2


@<TRIPOS>ATOM
      1 C24         -3.6920    -3.7440    -0.4500 c3         1 2SM       0.149900
      2 O23         -3.6890    -2.3360    -0.7090 os         1 2SM      -0.417100
      3 C22         -2.5540    -1.6920    -0.5420 c          1 2SM       0.614700
      4 O25         -1.5250    -2.1980    -0.1710 o          1 2SM      -0.504000
      5 C4          -2.6750    -0.2570    -0.9430 ca         1 2SM      -0.041600
      6 C3          -3.2370     0.0300    -2.1810 ca         1 2SM      -0.091000
      7 C2          -3.2790     1.3340    -2.6550 ca         1 2SM      -0.064000
      8 C1          -2.7750     2.3700    -1.8880 ca         1 2SM      -0.109000
      9 C6          -2.2300     2.1060    -0.6390 ca         1 2SM       0.000000
     10 C5          -2.1730     0.8000    -0.1780 ca         1 2SM      -0.250500
     11 S7          -1.5860     0.5440     1.4790 sy         1 2SM       1.193300
     12 O18         -1.4710     1.8320     2.1260 o          1 2SM      -0.521500
     13 O17         -2.3790    -0.5020     2.0930 o          1 2SM      -0.521500
     14 N8          -0.0570    -0.1080     1.3420 ns         1 2SM      -0.586300
     15 C9           0.9860     0.5810     0.7340 c          1 2SM       0.693100
     16 O20          0.8530     1.7040     0.3150 o          1 2SM      -0.548100
     17 N10          2.1240    -0.1750     0.6960 ns         1 2SM      -0.316900
     18 C11          3.3440     0.1370     0.1170 ca         1 2SM       0.267900
     19 N12          4.2470    -0.8270     0.2550 nb         1 2SM      -0.242000
     20 C13          5.4470    -0.6200    -0.2730 ca         1 2SM       0.165300
     21 C28          6.4540    -1.7140    -0.1500 c3         1 2SM      -0.153400
     22 C14          5.7320     0.5710    -0.9380 ca         1 2SM      -0.256000
     23 C15          4.7130     1.4960    -1.0190 ca         1 2SM       0.139900
     24 N16          3.5080     1.2940    -0.4950 nb         1 2SM      -0.176000
     25 H24         -3.0020    -4.2660    -1.1120 h1         1 2SM       0.054367
     26 H24A        -3.4300    -3.9530     0.5860 h1         1 2SM       0.054367
     27 H24B        -4.7060    -4.0780    -0.6450 h1         1 2SM       0.054367
     28 H3          -3.6310    -0.7700    -2.7920 ha         1 2SM       0.127000
     29 H2          -3.7120     1.5360    -3.6250 ha         1 2SM       0.122000
     30 H1          -2.8130     3.3880    -2.2480 ha         1 2SM       0.126000
     31 H6          -1.8640     2.9210    -0.0330 ha         1 2SM       0.157000
     32 HN8         -0.0270    -1.1170     1.4270 hn         1 2SM       0.355500
     33 HN10         2.1160    -1.0780     1.1490 hn         1 2SM       0.178000
     34 H28          6.2780    -2.4650    -0.9220 hc         1 2SM       0.058367
     35 H28A         7.4680    -1.3400    -0.2760 hc         1 2SM       0.058367
     36 H28B         6.3740    -2.2130     0.8150 hc         1 2SM       0.058367
     37 H14          6.7030     0.7620    -1.3710 ha         1 2SM       0.137000
     38 H15          4.8640     2.4440    -1.5240 h4         1 2SM       0.030100
@<TRIPOS>BOND
     1     1     2 1   
     2     1    25 1   
     3     1    26 1   
     4     1    27 1   
     5     2     3 1   
     6     3     4 2   
     7     3     5 1   
     8     5     6 ar  
     9     5    10 ar  
    10     6     7 ar  
    11     6    28 1   
    12     7     8 ar  
    13     7    29 1   
    14     8     9 ar  
    15     8    30 1   
    16     9    10 ar  
    17     9    31 1   
    18    10    11 1   
    19    11    12 2   
    20    11    13 2   
    21    11    14 1   
    22    14    15 1   
    23    14    32 1   
    24    15    16 2   
    25    15    17 1   
    26    17    18 1   
    27    17    33 1   
    28    18    19 ar  
    29    18    24 ar  
    30    19    20 ar  
    31    20    21 1   
    32    20    22 ar  
    33    21    34 1   
    34    21    35 1   
    35    21    36 1   
    36    22    23 ar  
    37    22    37 1   
    38    23    24 ar  
    39    23    38 1   
@<TRIPOS>SUBSTRUCTURE
     1 2SM         1 TEMP              0 ****  ****    0 ROOT
