@<TRIPOS>MOLECULE
2SN
   45    47     1     0     0
SMALL
No Charge or Current Charge


@<TRIPOS>ATOM
      1 C26          7.1640     2.2880    -0.5950 c3         1 2SN       0.149600
      2 N24          6.1380     1.3620    -0.0660 n3         1 2SN      -0.711600
      3 C25          5.4770     1.8930     1.1500 c3         1 2SN       0.149600
      4 C23          5.1770     0.9280    -1.1110 c3         1 2SN       0.208100
      5 C16          2.8650     0.0780    -0.4440 ca         1 2SN      -0.179000
      6 C15          4.2330    -0.1850    -0.6580 ca         1 2SN      -0.045300
      7 C14          4.7230    -1.4880    -0.4510 ca         1 2SN      -0.135000
      8 C13          3.8590    -2.5140    -0.0350 ca         1 2SN      -0.077000
      9 C12          2.4970    -2.2410     0.1760 ca         1 2SN      -0.183000
     10 C11          1.9960    -0.9420    -0.0270 ca         1 2SN       0.307000
     11 N22          0.6490    -0.6400     0.1750 nu         1 2SN      -0.949200
     12 C21         -0.3970    -1.5240     0.7050 c3         1 2SN       0.253100
     13 C10         -3.8430    -0.1100    -0.2540 ca         1 2SN       0.324000
     14 C09         -2.6140    -0.7930    -0.3050 ca         1 2SN      -0.095000
     15 C08         -1.7210    -0.7770     0.7860 ca         1 2SN      -0.083300
     16 C07         -2.0630    -0.0610     1.9480 ca         1 2SN      -0.111000
     17 C06         -3.2840     0.6280     2.0210 ca         1 2SN      -0.078000
     18 C05         -4.1720     0.6060     0.9290 ca         1 2SN      -0.126000
     19 C04         -5.3960     1.2950     1.0000 ca         1 2SN      -0.029000
     20 C03         -6.2450     1.2420    -0.1140 ca         1 2SN      -0.209000
     21 C02         -5.8230     0.5130    -1.2280 ca         1 2SN       0.617900
     22 N02         -6.5420     0.3790    -2.3430 nv         1 2SN      -1.070900
     23 N01         -4.6780    -0.1480    -1.3210 nb         1 2SN      -0.761000
     24 H261         7.9060     2.5280     0.1780 h1         1 2SN       0.030867
     25 H262         7.6950     1.8350    -1.4430 h1         1 2SN       0.030867
     26 H263         6.7060     3.2260    -0.9360 h1         1 2SN       0.030867
     27 H251         4.8840     2.7870     0.9140 h1         1 2SN       0.030867
     28 H252         4.8100     1.1440     1.5950 h1         1 2SN       0.030867
     29 H253         6.2230     2.1660     1.9080 h1         1 2SN       0.030867
     30 H231         4.5830     1.7870    -1.4520 h1         1 2SN       0.036700
     31 H232         5.7280     0.5610    -1.9880 h1         1 2SN       0.036700
     32 H14          5.7780    -1.7020    -0.6100 ha         1 2SN       0.126000
     33 H13          4.2440    -3.5190     0.1240 ha         1 2SN       0.108000
     34 H12          1.8400    -3.0430     0.4970 ha         1 2SN       0.111000
     35 H22          0.3790     0.3290     0.0030 hn         1 2SN       0.467000
     36 H211        -0.5140    -2.4050     0.0570 h1         1 2SN       0.045700
     37 H212        -0.1190    -1.8820     1.7060 h1         1 2SN       0.045700
     38 H09         -2.3520    -1.3410    -1.2050 ha         1 2SN       0.128000
     39 H07         -1.3810    -0.0370     2.7950 ha         1 2SN       0.126000
     40 H06         -3.5380     1.1780     2.9250 ha         1 2SN       0.113000
     41 H04         -5.6810     1.8530     1.8900 ha         1 2SN       0.117000
     42 H03         -7.2010     1.7550    -0.1140 ha         1 2SN       0.120000
     43 H021        -7.5450     0.5120    -2.2660 hn         1 2SN       0.479500
     44 H022        -6.2310    -0.3600    -2.9620 hn         1 2SN       0.479500
     45 H16          2.4800     1.0820    -0.6000 ha         1 2SN       0.107000
@<TRIPOS>BOND
     1     1     2 1   
     2     1    24 1   
     3     1    25 1   
     4     1    26 1   
     5     2     3 1   
     6     2     4 1   
     7     3    27 1   
     8     3    28 1   
     9     3    29 1   
    10     4     6 1   
    11     4    30 1   
    12     4    31 1   
    13     5     6 ar  
    14     5    10 ar  
    15     5    45 1   
    16     6     7 ar  
    17     7     8 ar  
    18     7    32 1   
    19     8     9 ar  
    20     8    33 1   
    21     9    10 ar  
    22     9    34 1   
    23    10    11 1   
    24    11    12 1   
    25    11    35 1   
    26    12    15 1   
    27    12    36 1   
    28    12    37 1   
    29    13    14 ar  
    30    13    18 ar  
    31    13    23 ar  
    32    14    15 ar  
    33    14    38 1   
    34    15    16 ar  
    35    16    17 ar  
    36    16    39 1   
    37    17    18 ar  
    38    17    40 1   
    39    18    19 ar  
    40    19    20 ar  
    41    19    41 1   
    42    20    21 ar  
    43    20    42 1   
    44    21    22 1   
    45    21    23 ar  
    46    22    43 1   
    47    22    44 1   
@<TRIPOS>SUBSTRUCTURE
     1 2SN         1 TEMP              0 ****  ****    0 ROOT
