@<TRIPOS>MOLECULE
2SN
   45    47     1     0     0
SMALL
abcg2


@<TRIPOS>ATOM
      1 C26          7.3870     2.0120    -0.5900 c3         1 2SN       0.149600
      2 N24          6.3500     1.1950    -0.0000 n3         1 2SN      -0.711600
      3 C25          5.9460     1.7140     1.2880 c3         1 2SN       0.149600
      4 C23          5.2230     1.0500    -0.9000 c3         1 2SN       0.208100
      5 C16          2.8950     0.2670    -0.3960 ca         1 2SN      -0.179000
      6 C15          4.2500    -0.0070    -0.4470 ca         1 2SN      -0.045300
      7 C14          4.7070    -1.2810    -0.1010 ca         1 2SN      -0.135000
      8 C13          3.7920    -2.2500     0.2720 ca         1 2SN      -0.077000
      9 C12          2.4270    -1.9830     0.3120 ca         1 2SN      -0.183000
     10 C11          1.9570    -0.7080    -0.0130 ca         1 2SN       0.307000
     11 N22          0.6270    -0.3580     0.0640 nu         1 2SN      -0.949200
     12 C21         -0.4190    -1.3490     0.1610 c3         1 2SN       0.253100
     13 C10         -4.0250    -0.2110    -0.3230 ca         1 2SN       0.324000
     14 C09         -2.7730    -0.8370    -0.5210 ca         1 2SN      -0.095000
     15 C08         -1.7470    -0.6770     0.3770 ca         1 2SN      -0.083300
     16 C07         -1.9350     0.1330     1.5190 ca         1 2SN      -0.111000
     17 C06         -3.1380     0.7500     1.7370 ca         1 2SN      -0.078000
     18 C05         -4.2010     0.5930     0.8270 ca         1 2SN      -0.126000
     19 C04         -5.4690     1.2050     0.9960 ca         1 2SN      -0.029000
     20 C03         -6.4430     1.0110     0.0730 ca         1 2SN      -0.209000
     21 C02         -6.1640     0.1820    -1.0590 ca         1 2SN       0.617900
     22 N02         -7.1190     0.0200    -2.0070 nv         1 2SN      -1.070900
     23 N01         -5.0020    -0.4040    -1.2390 nb         1 2SN      -0.761000
     24 H261         8.2430     2.0710     0.0830 h1         1 2SN       0.030867
     25 H262         7.7280     1.5670    -1.5270 h1         1 2SN       0.030867
     26 H263         7.0610     3.0420    -0.8060 h1         1 2SN       0.030867
     27 H251         5.5160     2.7270     1.2300 h1         1 2SN       0.030867
     28 H252         5.2010     1.0630     1.7450 h1         1 2SN       0.030867
     29 H253         6.8060     1.7560     1.9580 h1         1 2SN       0.030867
     30 H231         4.6870     2.0040    -1.0470 h1         1 2SN       0.036700
     31 H232         5.6140     0.7660    -1.8820 h1         1 2SN       0.036700
     32 H14          5.7670    -1.5000    -0.1210 ha         1 2SN       0.126000
     33 H13          4.1360    -3.2430     0.5340 ha         1 2SN       0.108000
     34 H12          1.7450    -2.7720     0.5970 ha         1 2SN       0.111000
     35 H22          0.3770     0.4460    -0.4910 hn         1 2SN       0.467000
     36 H211        -0.4650    -2.0000    -0.7220 h1         1 2SN       0.045700
     37 H212        -0.2150    -2.0000     1.0160 h1         1 2SN       0.045700
     38 H09         -2.6410    -1.4520    -1.4040 ha         1 2SN       0.128000
     39 H07         -1.1230     0.2610     2.2240 ha         1 2SN       0.126000
     40 H06         -3.2840     1.3680     2.6160 ha         1 2SN       0.113000
     41 H04         -5.6520     1.8270     1.8640 ha         1 2SN       0.117000
     42 H03         -7.4170     1.4710     0.1770 ha         1 2SN       0.120000
     43 H021        -8.0750     0.2270    -1.7770 hn         1 2SN       0.479500
     44 H022        -6.9850    -0.7120    -2.6850 hn         1 2SN       0.479500
     45 H16          2.5430     1.2600    -0.6550 ha         1 2SN       0.107000
@<TRIPOS>BOND
     1     1     2 1   
     2     1    24 1   
     3     1    25 1   
     4     1    26 1   
     5     2     3 1   
     6     2     4 1   
     7     3    27 1   
     8     3    28 1   
     9     3    29 1   
    10     4     6 1   
    11     4    30 1   
    12     4    31 1   
    13     5     6 ar  
    14     5    10 ar  
    15     5    45 1   
    16     6     7 ar  
    17     7     8 ar  
    18     7    32 1   
    19     8     9 ar  
    20     8    33 1   
    21     9    10 ar  
    22     9    34 1   
    23    10    11 1   
    24    11    12 1   
    25    11    35 1   
    26    12    15 1   
    27    12    36 1   
    28    12    37 1   
    29    13    14 ar  
    30    13    18 ar  
    31    13    23 ar  
    32    14    15 ar  
    33    14    38 1   
    34    15    16 ar  
    35    16    17 ar  
    36    16    39 1   
    37    17    18 ar  
    38    17    40 1   
    39    18    19 ar  
    40    19    20 ar  
    41    19    41 1   
    42    20    21 ar  
    43    20    42 1   
    44    21    22 1   
    45    21    23 ar  
    46    22    43 1   
    47    22    44 1   
@<TRIPOS>SUBSTRUCTURE
     1 2SN         1 TEMP              0 ****  ****    0 ROOT
