@<TRIPOS>MOLECULE
2SO
   68    69     1     0     0
SMALL
bcc


@<TRIPOS>ATOM
      1 C           10.5050    13.1710    14.2750 c          1 2SO       0.917600
      2 CA          10.6660    13.0250    12.7370 c3         1 2SO       0.010500
      3 CB          12.1520    12.9950    12.3480 c3         1 2SO       0.002900
      4 C12         12.8590    14.2500    12.7170 cc         1 2SO      -0.002600
      5 C13         13.4150    14.6070    13.9050 cd         1 2SO      -0.128300
      6 N14         13.9050    15.8810    13.7750 na         1 2SO      -0.004100
      7 C15         13.6610    16.2970    12.5430 cc         1 2SO      -0.092600
      8 N16         13.0240    15.3370    11.8870 na         1 2SO       0.005900
      9 C17         12.6450    15.4290    10.4810 c3         1 2SO       0.026300
     10 C18         13.7160    14.8690     9.5590 c3         1 2SO      -0.098400
     11 C19         13.2850    14.9510     8.1000 c3         1 2SO      -0.074400
     12 C20         14.3860    14.5200     7.1400 c3         1 2SO      -0.075400
     13 C21         13.9490    14.5700     5.6810 c3         1 2SO      -0.073400
     14 C22         15.0690    14.2950     4.6810 c3         1 2SO      -0.074400
     15 C23         15.6540    12.8920     4.7690 c3         1 2SO      -0.070400
     16 C24         16.7350    12.6150     3.7200 c3         1 2SO      -0.031100
     17 C25         16.2210    12.6670     2.3070 ca         1 2SO      -0.078300
     18 C26         15.3530    11.6820     1.8350 ca         1 2SO      -0.127500
     19 C27         14.8550    11.7280     0.5410 ca         1 2SO      -0.126500
     20 C28         15.2180    12.7650    -0.3110 ca         1 2SO      -0.130000
     21 C29         16.0830    13.7490     0.1440 ca         1 2SO      -0.126500
     22 C30         16.5780    13.6980     1.4420 ca         1 2SO      -0.127500
     23 N            9.9770    14.0840    12.0210 n8         1 2SO      -0.932800
     24 O            9.6470    13.9770    14.6800 o          1 2SO      -0.815800
     25 CCA         14.6210    16.6020    14.8270 c3         1 2SO       0.040300
     26 OXT         11.2390    12.4410    14.9700 o          1 2SO      -0.815800
     27 HA          10.2660    12.0310    12.4850 h1         1 2SO       0.039700
     28 HB2         12.6420    12.1620    12.8490 hc         1 2SO       0.061200
     29 HB3         12.2500    12.8090    11.2760 hc         1 2SO       0.061200
     30 H13         13.4800    14.0600    14.8290 h4         1 2SO       0.242000
     31 H15         13.9240    17.2540    12.1240 h5         1 2SO       0.220000
     32 H17         11.6950    14.9100    10.3700 h1         1 2SO       0.093200
     33 H17A        12.4640    16.4810    10.2630 h1         1 2SO       0.093200
     34 H18         14.6450    15.4280     9.7040 hc         1 2SO       0.052700
     35 H18A        13.9290    13.8290     9.8230 hc         1 2SO       0.052700
     36 H19         12.3980    14.3280     7.9470 hc         1 2SO       0.045700
     37 H19A        12.9810    15.9770     7.8650 hc         1 2SO       0.045700
     38 H20         15.2580    15.1690     7.2780 hc         1 2SO       0.040200
     39 H20A        14.7160    13.5100     7.4020 hc         1 2SO       0.040200
     40 H21         13.1340    13.8560     5.5190 hc         1 2SO       0.040700
     41 H21A        13.5300    15.5590     5.4710 hc         1 2SO       0.040700
     42 H22         14.6830    14.4620     3.6710 hc         1 2SO       0.043700
     43 H22A        15.8690    15.0310     4.8240 hc         1 2SO       0.043700
     44 H23         16.0920    12.7280     5.7580 hc         1 2SO       0.039200
     45 H23A        14.8520    12.1530     4.6670 hc         1 2SO       0.039200
     46 H24         17.5480    13.3370     3.8400 hc         1 2SO       0.046700
     47 H24A        17.1660    11.6290     3.9130 hc         1 2SO       0.046700
     48 H26         15.0640    10.8660     2.4890 ha         1 2SO       0.127000
     49 H27         14.1840    10.9520     0.1940 ha         1 2SO       0.129500
     50 H28         14.8310    12.8020    -1.3220 ha         1 2SO       0.131000
     51 H29         16.3750    14.5610    -0.5100 ha         1 2SO       0.129500
     52 H30         17.2510    14.4740     1.7890 ha         1 2SO       0.127000
     53 H            9.5590    13.7270    11.1730 hn         1 2SO       0.351300
     54 H2           9.2310    14.4270    12.6110 hn         1 2SO       0.351300
     55 C32         14.6420    18.1040    14.6010 c3         1 2SO      -0.098400
     56 C33         15.2920    18.8320    15.7680 c3         1 2SO       0.151100
     57 C34         15.2450    20.3340    15.5420 c3         1 2SO       0.101400
     58 O3          15.8750    20.9560    16.6400 oh         1 2SO      -0.603800
     59 O4          16.6200    18.3730    15.8850 oh         1 2SO      -0.608800
     60 HCA         14.1170    16.3670    15.7640 h1         1 2SO       0.095200
     61 HCAA        15.6300    16.1970    14.8790 h1         1 2SO       0.095200
     62 H32         15.1870    18.3520    13.6860 hc         1 2SO       0.059700
     63 H33         13.6190    18.4720    14.4870 hc         1 2SO       0.059700
     64 H34         14.7210    18.6040    16.6820 h1         1 2SO       0.056700
     65 H35         15.7520    20.5710    14.5980 h1         1 2SO       0.033200
     66 H36         14.1990    20.6500    15.4400 h1         1 2SO       0.033200
     67 H37         16.1050    21.8560    16.3950 ho         1 2SO       0.419000
     68 H38         17.0590    18.9160    16.5490 ho         1 2SO       0.433000
@<TRIPOS>BOND
     1     1     2 1   
     2     1    24 1   
     3     1    26 1   
     4     2     3 1   
     5     2    23 1   
     6     2    27 1   
     7     3     4 1   
     8     3    28 1   
     9     3    29 1   
    10     4     5 2   
    11     4     8 1   
    12     5     6 1   
    13     5    30 1   
    14     6     7 2   
    15     6    25 1   
    16     7     8 1   
    17     7    31 1   
    18     8     9 1   
    19     9    10 1   
    20     9    32 1   
    21     9    33 1   
    22    10    11 1   
    23    10    34 1   
    24    10    35 1   
    25    11    12 1   
    26    11    36 1   
    27    11    37 1   
    28    12    13 1   
    29    12    38 1   
    30    12    39 1   
    31    13    14 1   
    32    13    40 1   
    33    13    41 1   
    34    14    15 1   
    35    14    42 1   
    36    14    43 1   
    37    15    16 1   
    38    15    44 1   
    39    15    45 1   
    40    16    17 1   
    41    16    46 1   
    42    16    47 1   
    43    17    18 ar  
    44    17    22 ar  
    45    18    19 ar  
    46    18    48 1   
    47    19    20 ar  
    48    19    49 1   
    49    20    21 ar  
    50    20    50 1   
    51    21    22 ar  
    52    21    51 1   
    53    22    52 1   
    54    23    53 1   
    55    23    54 1   
    56    25    55 1   
    57    25    60 1   
    58    25    61 1   
    59    55    56 1   
    60    55    62 1   
    61    55    63 1   
    62    56    57 1   
    63    56    59 1   
    64    56    64 1   
    65    57    58 1   
    66    57    65 1   
    67    57    66 1   
    68    58    67 1   
    69    59    68 1   
@<TRIPOS>SUBSTRUCTURE
     1 2SO         1 TEMP              0 ****  ****    0 ROOT
