@<TRIPOS>MOLECULE
2SQ
   60    63     1     0     0
SMALL
bcc


@<TRIPOS>ATOM
      1 C01         -0.9130    -1.2360     2.2500 c3         1 2SQ      -0.057800
      2 C05         -1.5070    -0.9200     0.9090 ca         1 2SQ      -0.020300
      3 C06         -2.9060    -0.8590     0.7900 ca         1 2SQ      -0.146300
      4 C07         -3.7930    -1.0420     1.9940 c6         1 2SQ      -0.023100
      5 C10         -5.2210    -0.5960     1.7130 c6         1 2SQ      -0.113400
      6 C13         -5.6540    -1.1010     0.3560 c6         1 2SQ       0.139400
      7 O16         -4.8190    -0.5830    -0.6750 os         1 2SQ      -0.312900
      8 C17         -3.4910    -0.6350    -0.4540 ca         1 2SQ       0.088100
      9 C18         -2.6650    -0.4520    -1.5600 ca         1 2SQ       0.081900
     10 F19         -3.2420    -0.2390    -2.7560 f          1 2SQ      -0.147900
     11 C20         -1.3010    -0.4830    -1.4520 ca         1 2SQ      -0.134000
     12 C22         -0.7020    -0.7020    -0.2100 ca         1 2SQ      -0.008800
     13 C23          0.7820    -0.8010    -0.1720 cc         1 2SQ      -0.180400
     14 C24          1.5910     0.2310     0.1950 cd         1 2SQ       0.185400
     15 C25          1.0360     1.5580     0.6640 c3         1 2SQ       0.014300
     16 O27          1.4600     2.5830    -0.2010 os         1 2SQ      -0.413600
     17 C28          0.5140     3.4760    -0.7890 c3         1 2SQ       0.180800
     18 C29          1.3770     4.4680    -1.5610 c3         1 2SQ      -0.101433
     19 C33         -0.4080     2.7390    -1.7550 c3         1 2SQ      -0.101433
     20 C37         -0.3190     4.2200     0.2530 c3         1 2SQ      -0.101433
     21 C41          1.4210     1.8280     2.1530 c          1 2SQ       0.925600
     22 O42          1.5240     3.0120     2.5050 o          1 2SQ      -0.810300
     23 O44          1.5590     0.8100     2.8560 o          1 2SQ      -0.810300
     24 N45          2.9710     0.0920     0.1550 n          1 2SQ      -0.316000
     25 C46          3.8820     1.1590     0.5680 c3         1 2SQ       0.078300
     26 C50          3.6070    -1.0760    -0.2000 c          1 2SQ       0.704100
     27 O51          4.8310    -1.1540    -0.1720 o          1 2SQ      -0.664500
     28 C52          2.7570    -2.1910    -0.5920 ca         1 2SQ      -0.181600
     29 C53          3.3540    -3.3980    -0.9760 ca         1 2SQ      -0.059000
     30 C55          2.5760    -4.4730    -1.3400 ca         1 2SQ      -0.186000
     31 C57          1.1820    -4.3530    -1.3160 ca         1 2SQ      -0.105000
     32 C59          0.5850    -3.1710    -0.9400 ca         1 2SQ      -0.156000
     33 C61          1.3630    -2.0560    -0.5730 ca         1 2SQ       0.056200
     34 H1          -1.0670    -0.4230     2.9610 hc         1 2SQ       0.058033
     35 H2          -1.3730    -2.1300     2.6760 hc         1 2SQ       0.058033
     36 H3           0.1590    -1.3960     2.1870 hc         1 2SQ       0.058033
     37 H4          -3.7850    -2.0940     2.2970 hc         1 2SQ       0.054700
     38 H5          -3.3900    -0.4840     2.8420 hc         1 2SQ       0.054700
     39 H6          -5.8990    -0.9820     2.4760 hc         1 2SQ       0.051200
     40 H7          -5.2960     0.4940     1.7390 hc         1 2SQ       0.051200
     41 H8          -5.6250    -2.1960     0.3300 h1         1 2SQ       0.045700
     42 H9          -6.6650    -0.7830     0.1070 h1         1 2SQ       0.045700
     43 H10         -0.6900    -0.3390    -2.3340 ha         1 2SQ       0.152000
     44 H11         -0.0560     1.4550     0.6510 h1         1 2SQ       0.050700
     45 H12          1.9870     3.9600    -2.3100 hc         1 2SQ       0.035922
     46 H13          0.7500     5.1960    -2.0760 hc         1 2SQ       0.035922
     47 H14          2.0430     5.0130    -0.8900 hc         1 2SQ       0.035922
     48 H15         -1.1030     2.0790    -1.2360 hc         1 2SQ       0.035922
     49 H16         -1.0060     3.4500    -2.3250 hc         1 2SQ       0.035922
     50 H17          0.1630     2.1340    -2.4620 hc         1 2SQ       0.035922
     51 H18          0.3130     4.7870     0.9330 hc         1 2SQ       0.035922
     52 H19         -0.9990     4.9080    -0.2520 hc         1 2SQ       0.035922
     53 H20         -0.9270     3.5400     0.8500 hc         1 2SQ       0.035922
     54 H22          4.3410     0.9160     1.5260 h1         1 2SQ       0.062700
     55 H23          4.6680     1.2720    -0.1740 h1         1 2SQ       0.062700
     56 H24          3.3700     2.1050     0.6470 h1         1 2SQ       0.062700
     57 H25          4.4320    -3.4780    -0.9840 ha         1 2SQ       0.143000
     58 H26          3.0360    -5.4040    -1.6400 ha         1 2SQ       0.118000
     59 H27          0.5650    -5.1980    -1.5940 ha         1 2SQ       0.114000
     60 H28         -0.4940    -3.1010    -0.9250 ha         1 2SQ       0.134000
@<TRIPOS>BOND
     1     1     2 1   
     2     1    34 1   
     3     1    35 1   
     4     1    36 1   
     5     2     3 ar  
     6     2    12 ar  
     7     3     4 1   
     8     3     8 ar  
     9     4     5 1   
    10     4    37 1   
    11     4    38 1   
    12     5     6 1   
    13     5    39 1   
    14     5    40 1   
    15     6     7 1   
    16     6    41 1   
    17     6    42 1   
    18     7     8 1   
    19     8     9 ar  
    20     9    10 1   
    21     9    11 ar  
    22    11    12 ar  
    23    11    43 1   
    24    12    13 1   
    25    13    14 2   
    26    13    33 1   
    27    14    15 1   
    28    14    24 1   
    29    15    16 1   
    30    15    21 1   
    31    15    44 1   
    32    16    17 1   
    33    17    18 1   
    34    17    19 1   
    35    17    20 1   
    36    18    45 1   
    37    18    46 1   
    38    18    47 1   
    39    19    48 1   
    40    19    49 1   
    41    19    50 1   
    42    20    51 1   
    43    20    52 1   
    44    20    53 1   
    45    21    22 1   
    46    21    23 1   
    47    24    25 1   
    48    24    26 1   
    49    25    54 1   
    50    25    55 1   
    51    25    56 1   
    52    26    27 2   
    53    26    28 1   
    54    28    29 ar  
    55    28    33 ar  
    56    29    30 ar  
    57    29    57 1   
    58    30    31 ar  
    59    30    58 1   
    60    31    32 ar  
    61    31    59 1   
    62    32    33 ar  
    63    32    60 1   
@<TRIPOS>SUBSTRUCTURE
     1 2SQ         1 TEMP              0 ****  ****    0 ROOT
