@<TRIPOS>MOLECULE
2SQ
   60    63     1     0     0
SMALL
No Charge or Current Charge


@<TRIPOS>ATOM
      1 C01         -0.8550    -1.3870     2.1770 c3         1 2SQ      -0.057800
      2 C05         -1.4270    -0.9800     0.8150 ca         1 2SQ      -0.020300
      3 C06         -2.8300    -0.8230     0.6560 ca         1 2SQ      -0.146300
      4 C07         -3.7830    -0.9940     1.8530 c6         1 2SQ      -0.023100
      5 C10         -5.1870    -0.4250     1.5720 c6         1 2SQ      -0.113400
      6 C13         -5.6440    -0.8570     0.1710 c6         1 2SQ       0.162600
      7 O16         -4.7240    -0.3710    -0.8250 os         1 2SQ      -0.336100
      8 C17         -3.3610    -0.5160    -0.6240 ca         1 2SQ       0.088100
      9 C18         -2.4950    -0.3410    -1.7190 ca         1 2SQ       0.117000
     10 F19         -2.9900    -0.0450    -2.9440 f          1 2SQ      -0.183000
     11 C20         -1.1130    -0.4750    -1.5560 ca         1 2SQ      -0.116000
     12 C22         -0.5690    -0.7740    -0.2970 ca         1 2SQ      -0.008800
     13 C23          0.8850    -0.9290    -0.2110 cc         1 2SQ      -0.180400
     14 C24          1.6720     0.1720     0.1640 cd         1 2SQ       0.185400
     15 C25          1.0180     1.4950     0.6160 c3         1 2SQ       0.037500
     16 O27          1.2580     2.5280    -0.4050 os         1 2SQ      -0.460000
     17 C28          0.2350     3.5200    -0.7020 c3         1 2SQ       0.204000
     18 C29          0.9000     4.4820    -1.7120 c3         1 2SQ      -0.101433
     19 C33         -0.9790     2.8210    -1.3590 c3         1 2SQ      -0.101433
     20 C37         -0.1820     4.2890     0.5770 c3         1 2SQ      -0.101433
     21 C41          1.4660     1.8880     2.0700 c          1 2SQ       0.715000
     22 O42          2.1100     2.9120     2.2610 o          1 2SQ      -0.705000
     23 O44          1.1770     1.1200     2.9770 o          1 2SQ      -0.705000
     24 N45          3.0870     0.0550     0.1380 n          1 2SQ      -0.249000
     25 C46          3.9820     1.2150     0.4300 c3         1 2SQ       0.078300
     26 C50          3.7410    -1.1680    -0.1480 c          1 2SQ       0.561600
     27 O51          4.9630    -1.2750    -0.1030 o          1 2SQ      -0.589000
     28 C52          2.9000    -2.3470    -0.5070 ca         1 2SQ      -0.181600
     29 C53          3.4980    -3.5900    -0.8160 ca         1 2SQ      -0.041000
     30 C55          2.7030    -4.6940    -1.1600 ca         1 2SQ      -0.168000
     31 C57          1.3090    -4.5640    -1.1970 ca         1 2SQ      -0.087000
     32 C59          0.7160    -3.3290    -0.8890 ca         1 2SQ      -0.138000
     33 C61          1.5080    -2.2100    -0.5450 ca         1 2SQ       0.056200
     34 H1          -0.9930    -0.5880     2.9140 hc         1 2SQ       0.058033
     35 H2          -1.3550    -2.2840     2.5600 hc         1 2SQ       0.058033
     36 H3           0.2150    -1.6180     2.1470 hc         1 2SQ       0.058033
     37 H4          -3.8670    -2.0630     2.0930 hc         1 2SQ       0.054700
     38 H5          -3.3800    -0.5030     2.7490 hc         1 2SQ       0.054700
     39 H6          -5.9000    -0.7720     2.3320 hc         1 2SQ       0.051200
     40 H7          -5.1670     0.6720     1.6280 hc         1 2SQ       0.051200
     41 H8          -5.6840    -1.9540     0.1120 h1         1 2SQ       0.045700
     42 H9          -6.6480    -0.4650    -0.0470 h1         1 2SQ       0.045700
     43 H10         -0.4570    -0.3430    -2.4120 ha         1 2SQ       0.134000
     44 H11         -0.0570     1.3410     0.7220 h1         1 2SQ       0.050700
     45 H12          1.2140     3.9440    -2.6150 hc         1 2SQ       0.035922
     46 H13          0.2040     5.2730    -2.0140 hc         1 2SQ       0.035922
     47 H14          1.7850     4.9580    -1.2720 hc         1 2SQ       0.035922
     48 H15         -1.5300     2.2050    -0.6400 hc         1 2SQ       0.035922
     49 H16         -1.6820     3.5650    -1.7520 hc         1 2SQ       0.035922
     50 H17         -0.6570     2.1920    -2.1970 hc         1 2SQ       0.035922
     51 H18          0.6810     4.7810     1.0400 hc         1 2SQ       0.035922
     52 H19         -0.9100     5.0700     0.3280 hc         1 2SQ       0.035922
     53 H20         -0.6520     3.6270     1.3130 hc         1 2SQ       0.035922
     54 H22          4.1920     1.2550     1.5060 h1         1 2SQ       0.062700
     55 H23          4.9330     1.1240    -0.1090 h1         1 2SQ       0.062700
     56 H24          3.5400     2.1620     0.1100 h1         1 2SQ       0.062700
     57 H25          4.5800    -3.7050    -0.7920 ha         1 2SQ       0.125000
     58 H26          3.1690    -5.6480    -1.3970 ha         1 2SQ       0.100000
     59 H27          0.6880    -5.4170    -1.4600 ha         1 2SQ       0.096000
     60 H28         -0.3670    -3.2550    -0.9190 ha         1 2SQ       0.116000
@<TRIPOS>BOND
     1     1     2 1   
     2     1    34 1   
     3     1    35 1   
     4     1    36 1   
     5     2     3 ar  
     6     2    12 ar  
     7     3     4 1   
     8     3     8 ar  
     9     4     5 1   
    10     4    37 1   
    11     4    38 1   
    12     5     6 1   
    13     5    39 1   
    14     5    40 1   
    15     6     7 1   
    16     6    41 1   
    17     6    42 1   
    18     7     8 1   
    19     8     9 ar  
    20     9    10 1   
    21     9    11 ar  
    22    11    12 ar  
    23    11    43 1   
    24    12    13 1   
    25    13    14 2   
    26    13    33 1   
    27    14    15 1   
    28    14    24 1   
    29    15    16 1   
    30    15    21 1   
    31    15    44 1   
    32    16    17 1   
    33    17    18 1   
    34    17    19 1   
    35    17    20 1   
    36    18    45 1   
    37    18    46 1   
    38    18    47 1   
    39    19    48 1   
    40    19    49 1   
    41    19    50 1   
    42    20    51 1   
    43    20    52 1   
    44    20    53 1   
    45    21    22 1   
    46    21    23 1   
    47    24    25 1   
    48    24    26 1   
    49    25    54 1   
    50    25    55 1   
    51    25    56 1   
    52    26    27 2   
    53    26    28 1   
    54    28    29 ar  
    55    28    33 ar  
    56    29    30 ar  
    57    29    57 1   
    58    30    31 ar  
    59    30    58 1   
    60    31    32 ar  
    61    31    59 1   
    62    32    33 ar  
    63    32    60 1   
@<TRIPOS>SUBSTRUCTURE
     1 2SQ         1 TEMP              0 ****  ****    0 ROOT
