@<TRIPOS>MOLECULE
2SR
   54    57     1     0     0
SMALL
No Charge or Current Charge


@<TRIPOS>ATOM
      1 C01         -3.2510    -2.9320     0.0590 c6         1 2SR      -0.107400
      2 C02         -2.1420    -1.8390     0.0810 c6         1 2SR      -0.087700
      3 C03         -0.7460    -2.5150    -0.0830 c6         1 2SR      -0.107400
      4 C04         -0.7230    -3.4510    -1.3140 c6         1 2SR       0.155100
      5 O05         -1.7820    -4.4270    -1.2110 os         1 2SR      -0.451000
      6 C06         -3.1040    -3.8480    -1.1800 c6         1 2SR       0.155100
      7 C07         -2.2140    -0.9590     1.3670 c6         1 2SR       0.239500
      8 C08         -3.6470     1.0390     0.9590 ce         1 2SR       0.182900
      9 C09         -2.4590     1.6930     0.3550 ca         1 2SR      -0.134800
     10 C10         -1.2000     1.1180     0.6090 ca         1 2SR       0.160100
     11 O11         -1.1180    -0.0200     1.3880 os         1 2SR      -0.336100
     12 C12         -3.5300    -0.2000     1.4590 c2         1 2SR      -0.392200
     13 O13         -4.8070     1.7320     0.9940 oh         1 2SR      -0.527100
     14 C14         -2.5460     2.8460    -0.4500 ca         1 2SR      -0.041000
     15 C15         -1.3820     3.4070    -1.0080 ca         1 2SR      -0.114300
     16 C16         -0.1290     2.8170    -0.7510 ca         1 2SR      -0.062000
     17 C17         -0.0080     1.6650     0.0650 cp         1 2SR      -0.062000
     18 C18         -1.4750     4.6500    -1.8810 c3         1 2SR      -0.040800
     19 C19          1.3360     1.0510     0.3000 cp         1 2SR      -0.029000
     20 C20          2.2190     0.8240    -0.7820 ca         1 2SR      -0.165000
     21 C21          3.4910     0.2410    -0.5810 ca         1 2SR       0.105100
     22 C22          3.8980    -0.1190     0.7250 ca         1 2SR       0.114100
     23 C23          3.0270     0.1110     1.8140 ca         1 2SR      -0.175000
     24 C24          1.7660     0.6890     1.5990 ca         1 2SR      -0.078000
     25 O25          4.3610     0.0060    -1.6350 os         1 2SR      -0.322100
     26 O26          5.1480    -0.6900     0.8990 os         1 2SR      -0.322100
     27 C27          4.0330     0.3330    -2.9970 c3         1 2SR       0.145900
     28 C28          5.6430    -1.0890     2.1900 c3         1 2SR       0.145900
     29 H1          -3.1990    -3.5430     0.9710 hc         1 2SR       0.053700
     30 H2          -4.2470    -2.4700     0.0470 hc         1 2SR       0.053700
     31 H3          -2.3010    -1.1830    -0.7870 hc         1 2SR       0.057700
     32 H4           0.0400    -1.7570    -0.1950 hc         1 2SR       0.053700
     33 H5          -0.4970    -3.0930     0.8180 hc         1 2SR       0.053700
     34 H6          -0.8520    -2.8700    -2.2390 h1         1 2SR       0.042950
     35 H7           0.2420    -3.9750    -1.3700 h1         1 2SR       0.042950
     36 H8          -3.8480    -4.6570    -1.1400 h1         1 2SR       0.042950
     37 H9          -3.2720    -3.2730    -2.1030 h1         1 2SR       0.042950
     38 H10         -2.1060    -1.6150     2.2450 h1         1 2SR       0.081700
     39 H11         -4.3640    -0.7220     1.9260 ha         1 2SR       0.190000
     40 H12         -5.4540     1.1430     1.4330 ho         1 2SR       0.465000
     41 H13         -3.5130     3.3010    -0.6510 ha         1 2SR       0.127000
     42 H14          0.7670     3.2590    -1.1810 ha         1 2SR       0.117000
     43 H15         -1.3670     5.5590    -1.2780 hc         1 2SR       0.041700
     44 H16         -0.6900     4.6610    -2.6470 hc         1 2SR       0.041700
     45 H17         -2.4400     4.7040    -2.4000 hc         1 2SR       0.041700
     46 H18          1.8870     1.0980    -1.7790 ha         1 2SR       0.119000
     47 H19          3.3090    -0.1490     2.8300 ha         1 2SR       0.119000
     48 H20          1.1120     0.8670     2.4500 ha         1 2SR       0.125000
     49 H21          3.1410    -0.2160    -3.3260 h1         1 2SR       0.038367
     50 H22          3.8470     1.4090    -3.1060 h1         1 2SR       0.038367
     51 H23          4.8630     0.0630    -3.6620 h1         1 2SR       0.038367
     52 H24          6.6490    -1.5160     2.0950 h1         1 2SR       0.039367
     53 H25          5.7020    -0.2290     2.8680 h1         1 2SR       0.039367
     54 H26          4.9910    -1.8500     2.6380 h1         1 2SR       0.039367
@<TRIPOS>BOND
     1     1     2 1   
     2     1     6 1   
     3     1    29 1   
     4     1    30 1   
     5     2     3 1   
     6     2     7 1   
     7     2    31 1   
     8     3     4 1   
     9     3    32 1   
    10     3    33 1   
    11     4     5 1   
    12     4    34 1   
    13     4    35 1   
    14     5     6 1   
    15     6    36 1   
    16     6    37 1   
    17     7    11 1   
    18     7    12 1   
    19     7    38 1   
    20     8     9 1   
    21     8    12 2   
    22     8    13 1   
    23     9    10 ar  
    24     9    14 ar  
    25    10    11 1   
    26    10    17 ar  
    27    12    39 1   
    28    13    40 1   
    29    14    15 ar  
    30    14    41 1   
    31    15    16 ar  
    32    15    18 1   
    33    16    17 ar  
    34    16    42 1   
    35    17    19 1   
    36    18    43 1   
    37    18    44 1   
    38    18    45 1   
    39    19    20 ar  
    40    19    24 ar  
    41    20    21 ar  
    42    20    46 1   
    43    21    22 ar  
    44    21    25 1   
    45    22    23 ar  
    46    22    26 1   
    47    23    24 ar  
    48    23    47 1   
    49    24    48 1   
    50    25    27 1   
    51    26    28 1   
    52    27    49 1   
    53    27    50 1   
    54    27    51 1   
    55    28    52 1   
    56    28    53 1   
    57    28    54 1   
@<TRIPOS>SUBSTRUCTURE
     1 2SR         1 TEMP              0 ****  ****    0 ROOT
