@<TRIPOS>MOLECULE
2SR
   54    57     1     0     0
SMALL
bcc


@<TRIPOS>ATOM
      1 C01         -3.1540    -2.8690     0.0140 c6         1 2SR      -0.107400
      2 C02         -2.0710    -1.7920     0.0460 c6         1 2SR      -0.087700
      3 C03         -0.7000    -2.4560    -0.0840 c6         1 2SR      -0.107400
      4 C04         -0.6710    -3.3880    -1.2840 c6         1 2SR       0.131900
      5 O05         -1.6920    -4.3600    -1.2330 os         1 2SR      -0.404600
      6 C06         -2.9750    -3.7750    -1.1940 c6         1 2SR       0.131900
      7 C07         -2.1920    -0.9470     1.3180 c6         1 2SR       0.216300
      8 C08         -3.6150     1.0020     0.9310 ce         1 2SR       0.182900
      9 C09         -2.4420     1.6480     0.3440 ca         1 2SR      -0.134800
     10 C10         -1.1970     1.0730     0.6190 ca         1 2SR       0.160100
     11 O11         -1.1110    -0.0190     1.4070 os         1 2SR      -0.312900
     12 C12         -3.5060    -0.2330     1.4320 c2         1 2SR      -0.342200
     13 O13         -4.7330     1.7520     0.9190 oh         1 2SR      -0.488100
     14 C14         -2.5110     2.7900    -0.4490 ca         1 2SR      -0.059000
     15 C15         -1.3630     3.3680    -0.9760 ca         1 2SR      -0.114300
     16 C16         -0.1380     2.7750    -0.6870 ca         1 2SR      -0.080000
     17 C17         -0.0260     1.6320     0.1050 cp         1 2SR      -0.062000
     18 C18         -1.4390     4.6180    -1.8060 c3         1 2SR      -0.040800
     19 C19          1.2970     1.0180     0.3460 cp         1 2SR      -0.029000
     20 C20          2.1330     0.7550    -0.7470 ca         1 2SR      -0.183000
     21 C21          3.3860     0.1910    -0.5740 ca         1 2SR       0.105100
     22 C22          3.8350    -0.1200     0.7250 ca         1 2SR       0.114100
     23 C23          3.0100     0.1470     1.8050 ca         1 2SR      -0.193000
     24 C24          1.7490     0.7070     1.6170 ca         1 2SR      -0.096000
     25 O25          4.2420    -0.1030    -1.5710 os         1 2SR      -0.298900
     26 O26          5.0630    -0.6670     0.8030 os         1 2SR      -0.298900
     27 C27          3.8490     0.1900    -2.8960 c3         1 2SR       0.122700
     28 C28          5.5530    -1.0210     2.0800 c3         1 2SR       0.122700
     29 H1          -3.1070    -3.4680     0.9310 hc         1 2SR       0.053700
     30 H2          -4.1500    -2.4220    -0.0240 hc         1 2SR       0.053700
     31 H3          -2.2200    -1.1320    -0.8200 hc         1 2SR       0.057700
     32 H4           0.0910    -1.7110    -0.1960 hc         1 2SR       0.053700
     33 H5          -0.4760    -3.0240     0.8260 hc         1 2SR       0.053700
     34 H6          -0.7550    -2.7950    -2.2080 h1         1 2SR       0.042950
     35 H7           0.2780    -3.9260    -1.3300 h1         1 2SR       0.042950
     36 H8          -3.6980    -4.5920    -1.1710 h1         1 2SR       0.042950
     37 H9          -3.1600    -3.1980    -2.1120 h1         1 2SR       0.042950
     38 H10         -2.0590    -1.6050     2.1820 h1         1 2SR       0.081700
     39 H11         -4.3450    -0.7460     1.8860 ha         1 2SR       0.140000
     40 H12         -5.4730     1.2480     1.2760 ho         1 2SR       0.426000
     41 H13         -3.4750     3.2330    -0.6630 ha         1 2SR       0.145000
     42 H14          0.7670     3.2130    -1.0910 ha         1 2SR       0.135000
     43 H15         -1.3380     5.5110    -1.1850 hc         1 2SR       0.041700
     44 H16         -0.6480     4.6520    -2.5540 hc         1 2SR       0.041700
     45 H17         -2.3950     4.6920    -2.3240 hc         1 2SR       0.041700
     46 H18          1.7740     0.9870    -1.7410 ha         1 2SR       0.137000
     47 H19          3.3320    -0.0750     2.8130 ha         1 2SR       0.137000
     48 H20          1.1370     0.9110     2.4850 ha         1 2SR       0.143000
     49 H21          2.9540    -0.3650    -3.1910 h1         1 2SR       0.038367
     50 H22          3.6640     1.2570    -3.0420 h1         1 2SR       0.038367
     51 H23          4.6740    -0.1140    -3.5370 h1         1 2SR       0.038367
     52 H24          6.5340    -1.4640     1.9230 h1         1 2SR       0.039367
     53 H25          5.6620    -0.1500     2.7320 h1         1 2SR       0.039367
     54 H26          4.9110    -1.7540     2.5750 h1         1 2SR       0.039367
@<TRIPOS>BOND
     1     1     2 1   
     2     1     6 1   
     3     1    29 1   
     4     1    30 1   
     5     2     3 1   
     6     2     7 1   
     7     2    31 1   
     8     3     4 1   
     9     3    32 1   
    10     3    33 1   
    11     4     5 1   
    12     4    34 1   
    13     4    35 1   
    14     5     6 1   
    15     6    36 1   
    16     6    37 1   
    17     7    11 1   
    18     7    12 1   
    19     7    38 1   
    20     8     9 1   
    21     8    12 2   
    22     8    13 1   
    23     9    10 ar  
    24     9    14 ar  
    25    10    11 1   
    26    10    17 ar  
    27    12    39 1   
    28    13    40 1   
    29    14    15 ar  
    30    14    41 1   
    31    15    16 ar  
    32    15    18 1   
    33    16    17 ar  
    34    16    42 1   
    35    17    19 1   
    36    18    43 1   
    37    18    44 1   
    38    18    45 1   
    39    19    20 ar  
    40    19    24 ar  
    41    20    21 ar  
    42    20    46 1   
    43    21    22 ar  
    44    21    25 1   
    45    22    23 ar  
    46    22    26 1   
    47    23    24 ar  
    48    23    47 1   
    49    24    48 1   
    50    25    27 1   
    51    26    28 1   
    52    27    49 1   
    53    27    50 1   
    54    27    51 1   
    55    28    52 1   
    56    28    53 1   
    57    28    54 1   
@<TRIPOS>SUBSTRUCTURE
     1 2SR         1 TEMP              0 ****  ****    0 ROOT
