@<TRIPOS>MOLECULE
2SS
   70    73     1     0     0
SMALL
No Charge or Current Charge


@<TRIPOS>ATOM
      1 C1          -5.7140     3.1930    -2.4820 ca         1 2SS      -0.134000
      2 C2          -6.2760     1.9160    -2.3990 ca         1 2SS      -0.115000
      3 C3          -4.3460     3.3740    -2.2350 ca         1 2SS      -0.072000
      4 C4          -5.4640     0.8200    -2.0780 ca         1 2SS      -0.128000
      5 C5          -0.1570    -1.6660    -1.4510 ca         1 2SS      -0.123000
      6 C6           1.2190    -1.5230    -1.6840 ca         1 2SS      -0.150000
      7 C7          -3.5060     2.2860    -1.8900 ca         1 2SS      -0.103600
      8 C8           0.2250    -1.5860     0.9650 ca         1 2SS      -0.096600
      9 C9          -4.0830     0.9790    -1.8220 ca         1 2SS      -0.044300
     10 C10         -0.6730    -1.6770    -0.1370 ca         1 2SS      -0.109300
     11 C11          2.1020    -1.4000    -0.6040 ca         1 2SS       0.071100
     12 C12          1.6060    -1.4230     0.7240 ca         1 2SS       0.049100
     13 C14         -3.7460    -0.4290     2.2390 c2         1 2SS      -0.177200
     14 C15         -2.0410     2.6070    -1.6320 c          1 2SS       0.592700
     15 C17          7.8190    -1.0930    -1.6390 c          1 2SS       0.717000
     16 C18          0.3490     3.4240     2.7190 cy         1 2SS      -0.103400
     17 C19          1.2840     2.5970     1.7770 cy         1 2SS      -0.085900
     18 C20         -0.5540     3.6130     1.4570 cy         1 2SS      -0.085900
     19 C21          3.8040    -0.8030     1.5120 c6         1 2SS       0.113600
     20 C22         -0.0240     2.2060     1.0080 cy         1 2SS      -0.090700
     21 C23          4.3650    -1.4850     0.2430 c6         1 2SS       0.127300
     22 C24         -3.2840    -0.3020    -1.5460 c3         1 2SS       0.190100
     23 C25         -2.1850    -1.8170     0.0720 c3         1 2SS       0.213100
     24 C26         -4.1270    -0.4570     0.7760 c3         1 2SS       0.192000
     25 C28          0.0920     1.8950    -0.4930 c3         1 2SS       0.118000
     26 C29          5.7630    -0.9410    -0.1680 c3         1 2SS      -0.049400
     27 N30         -1.3200     1.7370    -0.8520 ns         1 2SS      -0.462900
     28 N31         -2.9420    -0.5420    -0.1140 n3         1 2SS      -0.689600
     29 O32         -0.3340    -0.7050     3.0810 o          1 2SS      -0.719000
     30 O33          7.9250    -0.1290    -2.3820 o          1 2SS      -0.750500
     31 O34         -1.5140     3.6070    -2.1040 o          1 2SS      -0.659100
     32 O35         -0.5090    -2.8360     2.8070 o          1 2SS      -0.719000
     33 O36          8.7630    -1.5970    -1.0490 o          1 2SS      -0.750500
     34 O37          2.4800    -1.3040     1.7890 os         1 2SS      -0.309100
     35 O38          3.4540    -1.2720    -0.8570 os         1 2SS      -0.335100
     36 H1          -6.3380     4.0470    -2.7370 ha         1 2SS       0.099000
     37 H2          -7.3370     1.7720    -2.5910 ha         1 2SS       0.096000
     38 H3          -3.9350     4.3790    -2.3010 ha         1 2SS       0.128000
     39 H4          -5.9140    -0.1690    -2.0300 ha         1 2SS       0.102000
     40 H5          -0.8230    -1.7780    -2.3020 ha         1 2SS       0.082000
     41 H6           1.6020    -1.5150    -2.7010 ha         1 2SS       0.110000
     42 H241        -3.8610    -1.1570    -1.9260 h1         1 2SS       0.044200
     43 H242        -2.3750    -0.2620    -2.1570 h1         1 2SS       0.044200
     44 H251        -2.5660    -2.5830    -0.6180 h1         1 2SS       0.041200
     45 H252        -2.3630    -2.2280     1.0720 h1         1 2SS       0.041200
     46 H131        -4.0710    -0.9860     4.2660 ha         1 2SS       0.146500
     47 H132        -5.3030    -1.6440     3.0390 ha         1 2SS       0.146500
     48 H14         -2.8520     0.1610     2.4480 ha         1 2SS       0.221000
     49 H261        -4.8020    -1.3020     0.5820 h1         1 2SS       0.022700
     50 H262        -4.6940     0.4610     0.5770 h1         1 2SS       0.022700
     51 H30         -1.8270     0.9330    -0.4830 hn         1 2SS       0.377500
     52 H271         5.7600    -1.4670    -2.2380 hc         1 2SS       0.024700
     53 H272         6.4760    -2.7200    -1.1000 hc         1 2SS       0.024700
     54 H181        -0.1120     2.8440     3.5280 hc         1 2SS       0.031200
     55 H182         0.7800     4.3370     3.1420 hc         1 2SS       0.031200
     56 H191         1.9960     3.1980     1.1970 hc         1 2SS       0.046700
     57 H192         1.8270     1.7700     2.2470 hc         1 2SS       0.046700
     58 H201        -1.6320     3.6800     1.6430 hc         1 2SS       0.046700
     59 H202        -0.2590     4.4430     0.8040 hc         1 2SS       0.046700
     60 H22         -0.5540     1.3740     1.4880 hc         1 2SS       0.093700
     61 H211         4.4530    -0.9970     2.3780 h1         1 2SS       0.054700
     62 H212         3.7480     0.2830     1.3550 h1         1 2SS       0.054700
     63 H23          4.4420    -2.5670     0.4290 h1         1 2SS       0.048700
     64 H281         0.5700     2.7250    -1.0290 h1         1 2SS       0.064700
     65 H282         0.6420     0.9610    -0.6510 h1         1 2SS       0.064700
     66 H291         5.6890     0.1320    -0.3890 hc         1 2SS       0.048700
     67 H292         6.4420    -1.0270     0.6890 hc         1 2SS       0.048700
     68 C13         -4.4080    -1.0500     3.2310 c2         1 2SS      -0.348000
     69 C27          6.4140    -1.6610    -1.3790 c3         1 2SS      -0.203400
     70 C16         -0.2530    -1.7130     2.3920 c          1 2SS       0.729600
@<TRIPOS>BOND
     1     1     2 ar  
     2     1     3 ar  
     3     1    36 1   
     4     2     4 ar  
     5     2    37 1   
     6     3     7 ar  
     7     3    38 1   
     8     4     9 ar  
     9     4    39 1   
    10     5     6 ar  
    11     5    10 ar  
    12     5    40 1   
    13     6    11 ar  
    14     6    41 1   
    15     7     9 ar  
    16     7    14 1   
    17     8    10 ar  
    18     8    12 ar  
    19     8    70 1   
    20     9    22 1   
    21    10    23 1   
    22    11    12 ar  
    23    11    35 1   
    24    12    34 1   
    25    13    24 1   
    26    13    48 1   
    27    13    68 2   
    28    14    27 1   
    29    14    31 2   
    30    15    30 1   
    31    15    33 1   
    32    15    69 1   
    33    16    17 1   
    34    16    18 1   
    35    16    54 1   
    36    16    55 1   
    37    17    20 1   
    38    17    56 1   
    39    17    57 1   
    40    18    20 1   
    41    18    58 1   
    42    18    59 1   
    43    19    21 1   
    44    19    34 1   
    45    19    61 1   
    46    19    62 1   
    47    20    25 1   
    48    20    60 1   
    49    21    26 1   
    50    21    35 1   
    51    21    63 1   
    52    22    28 1   
    53    22    42 1   
    54    22    43 1   
    55    23    28 1   
    56    23    44 1   
    57    23    45 1   
    58    24    28 1   
    59    24    49 1   
    60    24    50 1   
    61    25    27 1   
    62    25    64 1   
    63    25    65 1   
    64    26    66 1   
    65    26    67 1   
    66    26    69 1   
    67    27    51 1   
    68    29    70 1   
    69    32    70 1   
    70    46    68 1   
    71    47    68 1   
    72    52    69 1   
    73    53    69 1   
@<TRIPOS>SUBSTRUCTURE
     1 2SS         1 TEMP              0 ****  ****    0 ROOT
