@<TRIPOS>MOLECULE
2SS
   70    73     1     0     0
SMALL
abcg2


@<TRIPOS>ATOM
      1 C1          -5.6590     3.1340    -1.7950 ca         1 2SS      -0.134000
      2 C2          -6.1630     1.8790    -2.1060 ca         1 2SS      -0.115000
      3 C3          -4.3280     3.2620    -1.4400 ca         1 2SS      -0.072000
      4 C4          -5.3310     0.7750    -2.0370 ca         1 2SS      -0.128000
      5 C5          -0.1110    -1.9480    -1.7640 ca         1 2SS      -0.123000
      6 C6           1.2520    -1.7600    -1.9250 ca         1 2SS      -0.150000
      7 C7          -3.4870     2.1510    -1.3500 ca         1 2SS      -0.103600
      8 C8           0.0980    -1.6790     0.6150 ca         1 2SS      -0.096600
      9 C9          -3.9950     0.8790    -1.6460 ca         1 2SS      -0.044300
     10 C10         -0.7020    -1.9150    -0.5030 ca         1 2SS      -0.109300
     11 C11          2.0530    -1.5370    -0.8120 ca         1 2SS       0.071100
     12 C12          1.4660    -1.4960     0.4540 ca         1 2SS       0.049100
     13 C14         -4.0730    -1.3220     1.9260 c2         1 2SS      -0.177200
     14 C15         -2.0510     2.4620    -1.0310 c          1 2SS       0.592700
     15 C17          7.7150    -0.9900    -1.5070 c          1 2SS       0.717000
     16 C18          1.1760     4.2570     2.3800 cy         1 2SS      -0.103400
     17 C19          1.6130     2.8590     1.9020 cy         1 2SS      -0.085900
     18 C20         -0.0170     4.1610     1.4100 cy         1 2SS      -0.085900
     19 C21          3.4640    -0.6550     1.2900 c6         1 2SS       0.113600
     20 C22          0.1720     2.6310     1.4080 cy         1 2SS      -0.090700
     21 C23          4.1870    -1.3930     0.1810 c6         1 2SS       0.127300
     22 C24         -3.1830    -0.3910    -1.5990 c3         1 2SS       0.190100
     23 C25         -2.1790    -2.1480    -0.3390 c3         1 2SS       0.213100
     24 C26         -4.2380    -1.1840     0.4420 c3         1 2SS       0.192000
     25 C28         -0.0070     1.8270     0.1390 c3         1 2SS       0.118000
     26 C29          5.5320    -0.7770    -0.1410 c3         1 2SS      -0.049400
     27 N30         -1.3910     1.6180    -0.2350 ns         1 2SS      -0.462900
     28 N31         -2.9780    -0.9200    -0.2510 n3         1 2SS      -0.689600
     29 O32         -0.7290    -0.4710     2.4570 o          1 2SS      -0.719000
     30 O33          8.2950    -1.4960    -2.4900 o          1 2SS      -0.750500
     31 O34         -1.5510     3.4860    -1.4920 o          1 2SS      -0.659100
     32 O35         -0.6570    -2.6990     2.5940 o          1 2SS      -0.719000
     33 O36          8.1690    -0.1080    -0.7530 o          1 2SS      -0.750500
     34 O37          2.2160    -1.2630     1.5640 os         1 2SS      -0.309100
     35 O38          3.3820    -1.3640    -0.9970 os         1 2SS      -0.335100
     36 H1          -6.2930     4.0090    -1.8450 ha         1 2SS       0.099000
     37 H2          -7.1970     1.7600    -2.4050 ha         1 2SS       0.096000
     38 H3          -3.9290     4.2450    -1.2280 ha         1 2SS       0.128000
     39 H4          -5.7240    -0.2010    -2.2920 ha         1 2SS       0.102000
     40 H5          -0.7220    -2.1420    -2.6380 ha         1 2SS       0.082000
     41 H6           1.7050    -1.7940    -2.9080 ha         1 2SS       0.110000
     42 H241        -3.6820    -1.1360    -2.2390 h1         1 2SS       0.044200
     43 H242        -2.1970    -0.2210    -2.0380 h1         1 2SS       0.044200
     44 H251        -2.5490    -2.7770    -1.1640 h1         1 2SS       0.041200
     45 H252        -2.3300    -2.7290     0.5690 h1         1 2SS       0.041200
     46 H131        -4.7420    -0.8580     3.8680 ha         1 2SS       0.146500
     47 H132        -5.6640    -0.0520     2.4910 ha         1 2SS       0.146500
     48 H14         -3.2890    -1.9760     2.2930 ha         1 2SS       0.221000
     49 H261        -4.7210    -2.0900     0.0360 h1         1 2SS       0.022700
     50 H262        -4.9300    -0.3620     0.2600 h1         1 2SS       0.022700
     51 H30         -1.8540     0.7790     0.1150 hn         1 2SS       0.377500
     52 H271         5.7430    -1.5880    -2.1350 hc         1 2SS       0.024700
     53 H272         6.4240    -2.5860    -0.8840 hc         1 2SS       0.024700
     54 H181         0.8510     4.2380     3.4210 hc         1 2SS       0.031200
     55 H182         1.8770     5.0830     2.2520 hc         1 2SS       0.031200
     56 H191         2.3120     2.9250     1.0640 hc         1 2SS       0.046700
     57 H192         2.0170     2.1600     2.6350 hc         1 2SS       0.046700
     58 H201        -0.9780     4.5620     1.7330 hc         1 2SS       0.046700
     59 H202         0.2280     4.5880     0.4360 hc         1 2SS       0.046700
     60 H22         -0.4160     2.1670     2.2030 hc         1 2SS       0.093700
     61 H211         4.0460    -0.6900     2.2100 h1         1 2SS       0.054700
     62 H212         3.3210     0.3980     1.0140 h1         1 2SS       0.054700
     63 H23          4.3240    -2.4400     0.4890 h1         1 2SS       0.048700
     64 H281         0.5250     2.3030    -0.6870 h1         1 2SS       0.064700
     65 H282         0.4330     0.8450     0.2870 h1         1 2SS       0.064700
     66 H291         5.3880     0.2640    -0.4450 hc         1 2SS       0.048700
     67 H292         6.1120    -0.7490     0.7840 hc         1 2SS       0.048700
     68 C13         -4.8630    -0.7130     2.8020 c2         1 2SS      -0.348000
     69 C27          6.3090    -1.5420    -1.2020 c3         1 2SS      -0.203400
     70 C16         -0.4830    -1.6040     2.0220 c          1 2SS       0.729600
@<TRIPOS>BOND
     1     1     2 ar  
     2     1     3 ar  
     3     1    36 1   
     4     2     4 ar  
     5     2    37 1   
     6     3     7 ar  
     7     3    38 1   
     8     4     9 ar  
     9     4    39 1   
    10     5     6 ar  
    11     5    10 ar  
    12     5    40 1   
    13     6    11 ar  
    14     6    41 1   
    15     7     9 ar  
    16     7    14 1   
    17     8    10 ar  
    18     8    12 ar  
    19     8    70 1   
    20     9    22 1   
    21    10    23 1   
    22    11    12 ar  
    23    11    35 1   
    24    12    34 1   
    25    13    24 1   
    26    13    48 1   
    27    13    68 2   
    28    14    27 1   
    29    14    31 2   
    30    15    30 1   
    31    15    33 1   
    32    15    69 1   
    33    16    17 1   
    34    16    18 1   
    35    16    54 1   
    36    16    55 1   
    37    17    20 1   
    38    17    56 1   
    39    17    57 1   
    40    18    20 1   
    41    18    58 1   
    42    18    59 1   
    43    19    21 1   
    44    19    34 1   
    45    19    61 1   
    46    19    62 1   
    47    20    25 1   
    48    20    60 1   
    49    21    26 1   
    50    21    35 1   
    51    21    63 1   
    52    22    28 1   
    53    22    42 1   
    54    22    43 1   
    55    23    28 1   
    56    23    44 1   
    57    23    45 1   
    58    24    28 1   
    59    24    49 1   
    60    24    50 1   
    61    25    27 1   
    62    25    64 1   
    63    25    65 1   
    64    26    66 1   
    65    26    67 1   
    66    26    69 1   
    67    27    51 1   
    68    29    70 1   
    69    32    70 1   
    70    46    68 1   
    71    47    68 1   
    72    52    69 1   
    73    53    69 1   
@<TRIPOS>SUBSTRUCTURE
     1 2SS         1 TEMP              0 ****  ****    0 ROOT
