@<TRIPOS>MOLECULE
2SU
   29    30     1     0     0
SMALL
bcc


@<TRIPOS>ATOM
      1 F01         -1.4220     2.0610    -0.4950 f          1 2SU      -0.271300
      2 O02         -4.1650     0.1750    -0.6210 o          1 2SU      -0.825800
      3 O03         -3.4570     0.2750     1.4860 o          1 2SU      -0.825800
      4 N04          2.3210    -2.0640    -0.0820 na         1 2SU      -0.186400
      5 N05         -1.9050    -1.4680    -1.1090 n8         1 2SU      -0.895800
      6 C06         -1.8650    -0.2830    -0.2510 c3         1 2SU       0.003200
      7 C07         -0.8880    -0.5220     0.9110 c3         1 2SU       0.005800
      8 C08          0.5080    -0.8760     0.5110 cc         1 2SU      -0.086400
      9 C09          1.6180     0.0170     0.3360 ca         1 2SU      -0.093800
     10 C10         -1.3860     0.8330    -1.1640 c3         1 2SU       0.189900
     11 C11          2.7360    -0.7670    -0.0350 ca         1 2SU      -0.054200
     12 C12          0.9950    -2.1260     0.2470 cd         1 2SU      -0.125100
     13 C13         -3.2890     0.0940     0.2670 c          1 2SU       0.912600
     14 C14          1.7780     1.4030     0.4590 ca         1 2SU      -0.058000
     15 C15          3.9890    -0.2070    -0.2820 ca         1 2SU      -0.166000
     16 C16          3.0180     1.9610     0.2190 ca         1 2SU      -0.184000
     17 C17          4.1140     1.1620    -0.1490 ca         1 2SU      -0.121000
     18 H2           2.8980    -2.8570    -0.3040 hn         1 2SU       0.282700
     19 H3          -1.9940    -2.2970    -0.5330 hn         1 2SU       0.332300
     20 H4          -2.7560    -1.4240    -1.6560 hn         1 2SU       0.332300
     21 H6          -0.8770     0.3600     1.5510 hc         1 2SU       0.057700
     22 H7          -1.3030    -1.3220     1.5310 hc         1 2SU       0.057700
     23 H8          -2.0370     0.9150    -2.0370 h1         1 2SU       0.034700
     24 H9          -0.3620     0.6570    -1.4970 h1         1 2SU       0.034700
     25 H10          0.4880    -3.0780     0.2780 h4         1 2SU       0.156000
     26 H11          0.9380     2.0320     0.7270 ha         1 2SU       0.152000
     27 H12          4.8340    -0.8220    -0.5670 ha         1 2SU       0.114000
     28 H13          3.1520     3.0310     0.3120 ha         1 2SU       0.118000
     29 H14          5.0730     1.6280    -0.3360 ha         1 2SU       0.110000
@<TRIPOS>BOND
     1     1    10 1   
     2     2    13 1   
     3     3    13 1   
     4     4    11 1   
     5     4    12 1   
     6     4    18 1   
     7     5     6 1   
     8     5    19 1   
     9     5    20 1   
    10     6     7 1   
    11     6    10 1   
    12     6    13 1   
    13     7     8 1   
    14     7    21 1   
    15     7    22 1   
    16     8     9 1   
    17     8    12 2   
    18     9    11 ar  
    19     9    14 ar  
    20    10    23 1   
    21    10    24 1   
    22    11    15 ar  
    23    12    25 1   
    24    14    16 ar  
    25    14    26 1   
    26    15    17 ar  
    27    15    27 1   
    28    16    17 ar  
    29    16    28 1   
    30    17    29 1   
@<TRIPOS>SUBSTRUCTURE
     1 2SU         1 TEMP              0 ****  ****    0 ROOT
