@<TRIPOS>MOLECULE
2SU
   29    30     1     0     0
SMALL
No Charge or Current Charge


@<TRIPOS>ATOM
      1 F01         -1.3080     2.0300    -0.5980 f          1 2SU      -0.290000
      2 O02         -4.2450     0.1910    -0.4960 o          1 2SU      -0.720500
      3 O03         -3.4280     0.4350     1.4700 o          1 2SU      -0.720500
      4 N04          2.4020    -2.0950    -0.1250 na         1 2SU      -0.236700
      5 N05         -1.9990    -1.5970    -1.0650 n8         1 2SU      -1.006200
      6 C06         -1.8860    -0.2930    -0.2860 c3         1 2SU       0.003200
      7 C07         -0.8710    -0.5180     0.8930 c3         1 2SU       0.005800
      8 C08          0.5410    -0.8910     0.4880 cc         1 2SU      -0.086400
      9 C09          1.6650    -0.0050     0.3300 ca         1 2SU      -0.093800
     10 C10         -1.3790     0.8350    -1.2390 c3         1 2SU       0.208600
     11 C11          2.7440    -0.7600    -0.0370 ca         1 2SU      -0.054200
     12 C12          1.0290    -2.1670     0.2130 cd         1 2SU      -0.175100
     13 C13         -3.2930     0.2050     0.2750 c          1 2SU       0.702000
     14 C14          1.7650     1.3840     0.5080 ca         1 2SU      -0.040000
     15 C15          4.0010    -0.1830    -0.2660 ca         1 2SU      -0.148000
     16 C16          3.0180     1.9930     0.2820 ca         1 2SU      -0.166000
     17 C17          4.1330     1.2120    -0.1050 ca         1 2SU      -0.103000
     18 H2           3.0120    -2.8670    -0.3780 hn         1 2SU       0.333000
     19 H3          -2.2660    -2.3490    -0.4200 hn         1 2SU       0.387500
     20 H4          -2.8170    -1.5280    -1.6830 hn         1 2SU       0.387500
     21 H6          -0.8240     0.3900     1.5060 hc         1 2SU       0.057700
     22 H7          -1.2650    -1.2970     1.5570 hc         1 2SU       0.057700
     23 H8          -2.0650     0.9450    -2.0890 h1         1 2SU       0.034700
     24 H9          -0.3840     0.5900    -1.6320 h1         1 2SU       0.034700
     25 H10          0.4930    -3.1120     0.2240 h4         1 2SU       0.206000
     26 H11          0.9070     1.9780     0.8130 ha         1 2SU       0.134000
     27 H12          4.8530    -0.7920    -0.5580 ha         1 2SU       0.096000
     28 H13          3.1280     3.0670     0.4100 ha         1 2SU       0.100000
     29 H14          5.0950     1.6890    -0.2760 ha         1 2SU       0.092000
@<TRIPOS>BOND
     1     1    10 1   
     2     2    13 1   
     3     3    13 1   
     4     4    11 1   
     5     4    12 1   
     6     4    18 1   
     7     5     6 1   
     8     5    19 1   
     9     5    20 1   
    10     6     7 1   
    11     6    10 1   
    12     6    13 1   
    13     7     8 1   
    14     7    21 1   
    15     7    22 1   
    16     8     9 1   
    17     8    12 2   
    18     9    11 ar  
    19     9    14 ar  
    20    10    23 1   
    21    10    24 1   
    22    11    15 ar  
    23    12    25 1   
    24    14    16 ar  
    25    14    26 1   
    26    15    17 ar  
    27    15    27 1   
    28    16    17 ar  
    29    16    28 1   
    30    17    29 1   
@<TRIPOS>SUBSTRUCTURE
     1 2SU         1 TEMP              0 ****  ****    0 ROOT
