@<TRIPOS>MOLECULE
2SW
   71    73     1     0     0
SMALL
abcg2


@<TRIPOS>ATOM
      1 C17         -3.8230     1.0620     0.8060 ca         1 2SW      -0.103000
      2 C16         -5.1480     0.6640     0.8470 ca         1 2SW       0.115000
      3 CL2         -6.0060     0.7440     2.3530 cl         1 2SW      -0.225000
      4 C15         -5.8050     0.2030    -0.2850 ca         1 2SW      -0.115000
      5 C14         -5.1010     0.1470    -1.4780 ca         1 2SW      -0.106000
      6 C13         -3.7720     0.5450    -1.5330 ca         1 2SW      -0.097000
      7 C6          -3.1190     1.0080    -0.3950 ca         1 2SW      -0.053300
      8 C2          -1.6690     1.4160    -0.4690 c6         1 2SW      -0.030400
      9 C3          -1.3810     2.7910     0.1000 c6         1 2SW      -0.069400
     10 C4           0.0900     3.1670    -0.0860 c6         1 2SW      -0.090000
     11 C21          0.3940     3.3890    -1.5850 c3         1 2SW      -0.199400
     12 C23          1.8830     3.4980    -1.9520 c          1 2SW       0.716000
     13 O3           2.4000     2.4720    -2.4370 o          1 2SW      -0.721000
     14 O2           2.4500     4.5950    -1.7600 o          1 2SW      -0.721000
     15 C24          0.3460     4.4670     0.6840 c3         1 2SW      -0.070100
     16 C5           0.9860     2.0890     0.5310 c          1 2SW       0.589000
     17 O1           2.1050     2.3800     0.9170 o          1 2SW      -0.512000
     18 N1           0.4680     0.8420     0.7530 n          1 2SW      -0.422800
     19 C18          1.1440    -0.0000     1.7460 c3         1 2SW       0.144700
     20 C19          0.2070    -0.4130     2.8910 c3         1 2SW      -0.085400
     21 C22         -0.4700     0.7650     3.5720 c3         1 2SW      -0.088100
     22 C20          1.8280    -1.2600     1.2000 c3         1 2SW      -0.313400
     23 C1          -0.7880     0.3400     0.2060 c6         1 2SW       0.186000
     24 C7          -0.5780    -0.7850    -0.7850 ca         1 2SW      -0.112300
     25 C8          -1.3050    -1.9630    -0.6780 ca         1 2SW      -0.087000
     26 C9          -1.1450    -2.9900    -1.5990 ca         1 2SW      -0.118000
     27 C10         -0.2480    -2.8190    -2.6390 ca         1 2SW       0.108000
     28 CL1         -0.0060    -4.1020    -3.7810 cl         1 2SW      -0.233000
     29 C11          0.4770    -1.6430    -2.7770 ca         1 2SW      -0.118000
     30 C12          0.3090    -0.6300    -1.8490 ca         1 2SW      -0.087000
     31 S1           3.4300    -0.9310     0.4560 s6         1 2SW       1.048000
     32 O4           3.2640    -0.1700    -0.7790 o          1 2SW      -0.475000
     33 O5           4.2800    -0.3550     1.5070 o          1 2SW      -0.475000
     34 C25          4.1180    -2.5750     0.0180 c3         1 2SW      -0.241000
     35 C26          3.2210    -3.2280    -1.0270 c3         1 2SW      -0.078100
     36 C27          5.5020    -2.2820    -0.5620 c3         1 2SW      -0.078100
     37 C28          4.2330    -3.4380     1.2700 c3         1 2SW      -0.078100
     38 H1          -3.3460     1.4140     1.7120 ha         1 2SW       0.131000
     39 H2          -6.8400    -0.1030    -0.2370 ha         1 2SW       0.120000
     40 H3          -5.5950    -0.2110    -2.3710 ha         1 2SW       0.113000
     41 H4          -3.2330     0.4930    -2.4700 ha         1 2SW       0.127000
     42 H5          -1.4170     1.4400    -1.5300 hc         1 2SW       0.083700
     43 H6          -2.0120     3.5330    -0.3970 hc         1 2SW       0.039200
     44 H7          -1.6330     2.8350     1.1650 hc         1 2SW       0.039200
     45 H8          -0.0340     2.5820    -2.1780 hc         1 2SW       0.020700
     46 H9          -0.1330     4.3050    -1.8720 hc         1 2SW       0.020700
     47 H11          0.1650     4.3410     1.7530 hc         1 2SW       0.040367
     48 H12          1.3590     4.8290     0.5390 hc         1 2SW       0.040367
     49 H13         -0.3390     5.2360     0.3210 hc         1 2SW       0.040367
     50 H14          1.9130     0.6270     2.1920 h1         1 2SW       0.101700
     51 H15         -0.5340    -1.1460     2.5600 hc         1 2SW       0.034200
     52 H16          0.8230    -0.9380     3.6240 hc         1 2SW       0.034200
     53 H17          0.2660     1.4590     3.9800 hc         1 2SW       0.034033
     54 H18         -1.1100     1.3290     2.8930 hc         1 2SW       0.034033
     55 H19         -1.0950     0.4210     4.3970 hc         1 2SW       0.034033
     56 H20          2.0360    -1.9340     2.0320 h1         1 2SW       0.089200
     57 H21          1.2150    -1.8020     0.4860 h1         1 2SW       0.089200
     58 H22         -1.3650    -0.0530     1.0490 h1         1 2SW       0.043700
     59 H23         -2.0040    -2.0970     0.1390 ha         1 2SW       0.154500
     60 H24         -1.7080    -3.9080    -1.5000 ha         1 2SW       0.128500
     61 H25          1.1790    -1.5260    -3.5910 ha         1 2SW       0.128500
     62 H26          0.9030     0.2730    -1.9460 ha         1 2SW       0.154500
     63 H27          3.1080    -2.6070    -1.9120 hc         1 2SW       0.046922
     64 H28          3.6740    -4.1730    -1.3320 hc         1 2SW       0.046922
     65 H29          2.2280    -3.4580    -0.6390 hc         1 2SW       0.046922
     66 H30          6.1630    -1.8270     0.1750 hc         1 2SW       0.046922
     67 H31          5.9520    -3.2240    -0.8760 hc         1 2SW       0.046922
     68 H32          5.4510    -1.6330    -1.4360 hc         1 2SW       0.046922
     69 H33          3.2590    -3.7240     1.6670 hc         1 2SW       0.046922
     70 H34          4.7540    -4.3590     1.0080 hc         1 2SW       0.046922
     71 H35          4.8030    -2.9450     2.0550 hc         1 2SW       0.046922
@<TRIPOS>BOND
     1     1     2 ar  
     2     1     7 ar  
     3     1    38 1   
     4     2     3 1   
     5     2     4 ar  
     6     4     5 ar  
     7     4    39 1   
     8     5     6 ar  
     9     5    40 1   
    10     6     7 ar  
    11     6    41 1   
    12     7     8 1   
    13     8     9 1   
    14     8    23 1   
    15     8    42 1   
    16     9    10 1   
    17     9    43 1   
    18     9    44 1   
    19    10    11 1   
    20    10    15 1   
    21    10    16 1   
    22    11    12 1   
    23    11    45 1   
    24    11    46 1   
    25    12    13 1   
    26    12    14 1   
    27    15    47 1   
    28    15    48 1   
    29    15    49 1   
    30    16    17 2   
    31    16    18 1   
    32    18    19 1   
    33    18    23 1   
    34    19    20 1   
    35    19    22 1   
    36    19    50 1   
    37    20    21 1   
    38    20    51 1   
    39    20    52 1   
    40    21    53 1   
    41    21    54 1   
    42    21    55 1   
    43    22    31 1   
    44    22    56 1   
    45    22    57 1   
    46    23    24 1   
    47    23    58 1   
    48    24    25 ar  
    49    24    30 ar  
    50    25    26 ar  
    51    25    59 1   
    52    26    27 ar  
    53    26    60 1   
    54    27    28 1   
    55    27    29 ar  
    56    29    30 ar  
    57    29    61 1   
    58    30    62 1   
    59    31    32 2   
    60    31    33 2   
    61    31    34 1   
    62    34    35 1   
    63    34    36 1   
    64    34    37 1   
    65    35    63 1   
    66    35    64 1   
    67    35    65 1   
    68    36    66 1   
    69    36    67 1   
    70    36    68 1   
    71    37    69 1   
    72    37    70 1   
    73    37    71 1   
@<TRIPOS>SUBSTRUCTURE
     1 2SW         1 TEMP              0 ****  ****    0 ROOT
