@<TRIPOS>MOLECULE
2SW
   71    73     1     0     0
SMALL
No Charge or Current Charge


@<TRIPOS>ATOM
      1 C17         -3.9230     1.1620     0.4260 ca         1 2SW      -0.103000
      2 C16         -5.2790     0.8260     0.2840 ca         1 2SW       0.115000
      3 Cl2         -6.3520     0.9130     1.6740 cl         1 2SW      -0.225000
      4 C15         -5.7800     0.4180    -0.9620 ca         1 2SW      -0.115000
      5 C14         -4.9200     0.3420    -2.0700 ca         1 2SW      -0.106000
      6 C13         -3.5620     0.6770    -1.9300 ca         1 2SW      -0.097000
      7 C6          -3.0520     1.0950    -0.6830 ca         1 2SW      -0.053300
      8 C2          -1.5590     1.4380    -0.5400 c6         1 2SW      -0.030400
      9 C3          -1.3350     2.8430     0.0410 c6         1 2SW      -0.069400
     10 C4           0.1720     3.2250     0.0370 c6         1 2SW      -0.090000
     11 C21          0.6930     3.3910    -1.4550 c3         1 2SW      -0.199400
     12 C23          1.9560     4.2650    -1.6300 c          1 2SW       0.716000
     13 O3           3.0480     3.7220    -1.5850 o          1 2SW      -0.721000
     14 O2           1.8070     5.4620    -1.8330 o          1 2SW      -0.721000
     15 C24          0.3250     4.5790     0.8120 c3         1 2SW      -0.070100
     16 C5           1.0220     2.1170     0.7450 c          1 2SW       0.589000
     17 O1           2.1230     2.4070     1.1980 o          1 2SW      -0.512000
     18 N1           0.5020     0.7950     0.8960 n          1 2SW      -0.422800
     19 C18          1.1840    -0.1270     1.8730 c3         1 2SW       0.144700
     20 C19          0.2530    -0.5980     3.0240 c3         1 2SW      -0.085400
     21 C22         -0.3790     0.5560     3.8340 c3         1 2SW      -0.088100
     22 C20          1.9210    -1.3300     1.2360 c3         1 2SW      -0.313400
     23 C1          -0.8220     0.3690     0.3110 c6         1 2SW       0.186000
     24 C7          -0.7560    -0.9460    -0.4800 ca         1 2SW      -0.112300
     25 C8          -1.4710    -2.0770    -0.0330 ca         1 2SW      -0.087000
     26 C9          -1.4200    -3.2800    -0.7570 ca         1 2SW      -0.118000
     27 C10         -0.6650    -3.3580    -1.9370 ca         1 2SW       0.108000
     28 Cl1         -0.5980    -4.8650    -2.8400 cl         1 2SW      -0.233000
     29 C11          0.0370    -2.2350    -2.3990 ca         1 2SW      -0.118000
     30 C12         -0.0050    -1.0330    -1.6720 ca         1 2SW      -0.087000
     31 S1           3.4010    -0.8690     0.3020 s6         1 2SW       1.048000
     32 O4           2.9770    -0.1250    -0.8910 o          1 2SW      -0.475000
     33 O5           4.3340    -0.2370     1.2440 o          1 2SW      -0.475000
     34 C25          4.1630    -2.4630    -0.2660 c3         1 2SW      -0.241000
     35 C26          3.1800    -3.2310    -1.1960 c3         1 2SW      -0.078100
     36 C27          5.4590    -2.1330    -1.0610 c3         1 2SW      -0.078100
     37 C28          4.5290    -3.3580     0.9540 c3         1 2SW      -0.078100
     38 H1          -3.5540     1.4680     1.4010 ha         1 2SW       0.131000
     39 H2          -6.8300     0.1570    -1.0670 ha         1 2SW       0.120000
     40 H3          -5.3040     0.0210    -3.0360 ha         1 2SW       0.113000
     41 H4          -2.9060     0.6070    -2.7950 ha         1 2SW       0.127000
     42 H5          -1.1310     1.4320    -1.5490 hc         1 2SW       0.083700
     43 H6          -1.9200     3.5800    -0.5280 hc         1 2SW       0.039200
     44 H7          -1.7180     2.8790     1.0700 hc         1 2SW       0.039200
     45 H8           0.9180     2.3810    -1.8200 hc         1 2SW       0.020700
     46 H9          -0.1210     3.8710    -2.0120 hc         1 2SW       0.020700
     47 H11         -0.0540     4.4900     1.8370 hc         1 2SW       0.040367
     48 H12          1.3690     4.9070     0.8900 hc         1 2SW       0.040367
     49 H13         -0.2380     5.3840     0.3240 hc         1 2SW       0.040367
     50 H14          1.9630     0.4390     2.4030 h1         1 2SW       0.101700
     51 H15         -0.5370    -1.2490     2.6340 hc         1 2SW       0.034200
     52 H16          0.8370    -1.2140     3.7190 hc         1 2SW       0.034200
     53 H17          0.3990     1.1970     4.2650 hc         1 2SW       0.034033
     54 H18         -1.0270     1.1800     3.2070 hc         1 2SW       0.034033
     55 H19         -0.9860     0.1560     4.6550 hc         1 2SW       0.034033
     56 H20          2.2810    -1.9870     2.0330 h1         1 2SW       0.089200
     57 H21          1.2750    -1.9100     0.5770 h1         1 2SW       0.089200
     58 H22         -1.4810     0.1900     1.1700 h1         1 2SW       0.043700
     59 H23         -2.0690    -2.0260     0.8750 ha         1 2SW       0.154500
     60 H24         -1.9680    -4.1510    -0.4060 ha         1 2SW       0.128500
     61 H25          0.6180    -2.2970    -3.3150 ha         1 2SW       0.128500
     62 H26          0.5520    -0.1710    -2.0340 ha         1 2SW       0.154500
     63 H27          2.9040    -2.6260    -2.0680 hc         1 2SW       0.046922
     64 H28          3.6390    -4.1560    -1.5670 hc         1 2SW       0.046922
     65 H29          2.2600    -3.5120    -0.6690 hc         1 2SW       0.046922
     66 H30          6.1840    -1.5980    -0.4340 hc         1 2SW       0.046922
     67 H31          5.9420    -3.0490    -1.4210 hc         1 2SW       0.046922
     68 H32          5.2400    -1.5060    -1.9340 hc         1 2SW       0.046922
     69 H33          3.6360    -3.6790     1.5030 hc         1 2SW       0.046922
     70 H34          5.0510    -4.2650     0.6250 hc         1 2SW       0.046922
     71 H35          5.1900    -2.8310     1.6530 hc         1 2SW       0.046922
@<TRIPOS>BOND
     1     1     2 ar  
     2     1     7 ar  
     3     1    38 1   
     4     2     3 1   
     5     2     4 ar  
     6     4     5 ar  
     7     4    39 1   
     8     5     6 ar  
     9     5    40 1   
    10     6     7 ar  
    11     6    41 1   
    12     7     8 1   
    13     8     9 1   
    14     8    23 1   
    15     8    42 1   
    16     9    10 1   
    17     9    43 1   
    18     9    44 1   
    19    10    11 1   
    20    10    15 1   
    21    10    16 1   
    22    11    12 1   
    23    11    45 1   
    24    11    46 1   
    25    12    13 1   
    26    12    14 1   
    27    15    47 1   
    28    15    48 1   
    29    15    49 1   
    30    16    17 2   
    31    16    18 1   
    32    18    19 1   
    33    18    23 1   
    34    19    20 1   
    35    19    22 1   
    36    19    50 1   
    37    20    21 1   
    38    20    51 1   
    39    20    52 1   
    40    21    53 1   
    41    21    54 1   
    42    21    55 1   
    43    22    31 1   
    44    22    56 1   
    45    22    57 1   
    46    23    24 1   
    47    23    58 1   
    48    24    25 ar  
    49    24    30 ar  
    50    25    26 ar  
    51    25    59 1   
    52    26    27 ar  
    53    26    60 1   
    54    27    28 1   
    55    27    29 ar  
    56    29    30 ar  
    57    29    61 1   
    58    30    62 1   
    59    31    32 2   
    60    31    33 2   
    61    31    34 1   
    62    34    35 1   
    63    34    36 1   
    64    34    37 1   
    65    35    63 1   
    66    35    64 1   
    67    35    65 1   
    68    36    66 1   
    69    36    67 1   
    70    36    68 1   
    71    37    69 1   
    72    37    70 1   
    73    37    71 1   
@<TRIPOS>SUBSTRUCTURE
     1 2SW         1 TEMP              0 ****  ****    0 ROOT
