@<TRIPOS>MOLECULE
2SX
   21    22     1     0     0
SMALL
bcc


@<TRIPOS>ATOM
      1 O14         -2.5240     1.5270    -1.2740 o          1 2SX      -0.833300
      2 C12         -3.0540     1.7380    -0.1700 c          1 2SX       0.931600
      3 O13         -3.6660     2.7670     0.1830 o          1 2SX      -0.833300
      4 C11         -2.9600     0.6280     0.9040 c3         1 2SX      -0.168200
      5 C9          -2.2350    -0.6050     0.4980 cc         1 2SX      -0.019400
      6 C5          -0.8370    -0.7290     0.2200 ca         1 2SX      -0.082800
      7 C4           0.2160     0.1910     0.2050 ca         1 2SX       0.003000
      8 C1           1.4770    -0.2770    -0.0970 ca         1 2SX      -0.069900
      9 BR1          2.9330     0.9400    -0.1170 br         1 2SX      -0.155100
     10 C8          -2.7510    -1.8610     0.3500 cd         1 2SX      -0.171100
     11 N7          -1.7670    -2.7470    -0.0050 na         1 2SX      -0.184400
     12 C6          -0.5810    -2.0840    -0.0880 ca         1 2SX      -0.044200
     13 C3           0.6980    -2.5400    -0.4010 ca         1 2SX      -0.170000
     14 C2           1.7310    -1.6230    -0.4020 ca         1 2SX      -0.099000
     15 H2          -2.4860     1.0650     1.7920 hc         1 2SX       0.030700
     16 H3          -3.9750     0.3700     1.2210 hc         1 2SX       0.030700
     17 H4           0.0370     1.2340     0.4300 ha         1 2SX       0.167000
     18 H5          -3.7680    -2.1990     0.4760 h4         1 2SX       0.150000
     19 H6          -1.9050    -3.7300    -0.1650 hn         1 2SX       0.279700
     20 H7           0.8890    -3.5790    -0.6360 ha         1 2SX       0.114000
     21 H8           2.7330    -1.9520    -0.6390 ha         1 2SX       0.123000
@<TRIPOS>BOND
     1     1     2 1   
     2     2     3 1   
     3     2     4 1   
     4     4     5 1   
     5     4    15 1   
     6     4    16 1   
     7     5     6 1   
     8     5    10 2   
     9     6     7 ar  
    10     6    12 ar  
    11     7     8 ar  
    12     7    17 1   
    13     8     9 1   
    14     8    14 ar  
    15    10    11 1   
    16    10    18 1   
    17    11    12 1   
    18    11    19 1   
    19    12    13 ar  
    20    13    14 ar  
    21    13    20 1   
    22    14    21 1   
@<TRIPOS>SUBSTRUCTURE
     1 2SX         1 TEMP              0 ****  ****    0 ROOT
