@<TRIPOS>MOLECULE
2SX
   21    22     1     0     0
SMALL
No Charge or Current Charge


@<TRIPOS>ATOM
      1 O14         -4.1770     1.4300    -1.0180 o          1 2SX      -0.728000
      2 C12         -3.2040     1.5960    -0.2970 c          1 2SX       0.721000
      3 O13         -2.3320     2.4230    -0.5220 o          1 2SX      -0.728000
      4 C11         -2.9960     0.6220     0.8750 c3         1 2SX      -0.168200
      5 C9          -2.2390    -0.6130     0.4590 cc         1 2SX      -0.019400
      6 C5          -0.8210    -0.7330     0.2660 ca         1 2SX      -0.082800
      7 C4           0.1980     0.2230     0.3950 ca         1 2SX       0.021000
      8 C1           1.5230    -0.1880     0.1380 ca         1 2SX      -0.069900
      9 Br1          2.9550     1.0690     0.2970 br         1 2SX      -0.155100
     10 C8          -2.7640    -1.8760     0.1960 cd         1 2SX      -0.221100
     11 N7          -1.7190    -2.7670    -0.1540 na         1 2SX      -0.234700
     12 C6          -0.5550    -2.0250    -0.0960 ca         1 2SX      -0.044200
     13 C3           0.7520    -2.4590    -0.3570 ca         1 2SX      -0.152000
     14 C2           1.8010    -1.5240    -0.2360 ca         1 2SX      -0.081000
     15 H2          -2.3950     1.1020     1.6560 hc         1 2SX       0.030700
     16 H3          -3.9700     0.2740     1.2400 hc         1 2SX       0.030700
     17 H4          -0.0260     1.2470     0.6820 ha         1 2SX       0.149000
     18 H5          -3.8010    -2.1990     0.2350 h4         1 2SX       0.200000
     19 H6          -1.8050    -3.7500    -0.3970 hn         1 2SX       0.330000
     20 H7           0.9530    -3.4880    -0.6440 ha         1 2SX       0.096000
     21 H8           2.8260    -1.8320    -0.4320 ha         1 2SX       0.105000
@<TRIPOS>BOND
     1     1     2 1   
     2     2     3 1   
     3     2     4 1   
     4     4     5 1   
     5     4    15 1   
     6     4    16 1   
     7     5     6 1   
     8     5    10 2   
     9     6     7 ar  
    10     6    12 ar  
    11     7     8 ar  
    12     7    17 1   
    13     8     9 1   
    14     8    14 ar  
    15    10    11 1   
    16    10    18 1   
    17    11    12 1   
    18    11    19 1   
    19    12    13 ar  
    20    13    14 ar  
    21    13    20 1   
    22    14    21 1   
@<TRIPOS>SUBSTRUCTURE
     1 2SX         1 TEMP              0 ****  ****    0 ROOT
