@<TRIPOS>MOLECULE
2SY
   34    36     1     0     0
SMALL
No Charge or Current Charge


@<TRIPOS>ATOM
      1 Cl2         -3.7420    -0.9310    -2.3710 cl         1 2SY      -0.213000
      2 C16         -3.4940     0.0290    -0.9180 ca         1 2SY       0.120000
      3 C13         -2.2990    -0.0990    -0.1900 ca         1 2SY      -0.075000
      4 C20         -4.4910     0.9200    -0.4900 ca         1 2SY      -0.113000
      5 C17         -4.2920     1.6850     0.6720 ca         1 2SY      -0.110000
      6 C14         -3.0970     1.5590     1.4010 ca         1 2SY      -0.112000
      7 C10         -2.0890     0.6700     0.9760 ca         1 2SY      -0.090300
      8 C6          -0.7980     0.5530     1.7880 c3         1 2SY       0.133900
      9 N2           0.3970     0.1970     0.9990 na         1 2SY      -0.111700
     10 C5           1.0460    -1.0520     0.9500 cc         1 2SY      -0.217100
     11 C7           2.0790    -0.8900     0.0340 cd         1 2SY      -0.017400
     12 C11          3.0550    -1.9670    -0.3730 c3         1 2SY      -0.165200
     13 C15          4.3910    -1.8360     0.3780 c          1 2SY       0.721000
     14 O19          4.4910    -2.3690     1.4740 o          1 2SY      -0.729000
     15 O18          5.2580    -1.1210    -0.1040 o          1 2SY      -0.729000
     16 C3           2.0540     0.4630    -0.4820 ca         1 2SY      -0.079800
     17 C1           1.0080     1.0940     0.1340 ca         1 2SY      -0.044200
     18 C8           2.8680     1.1140    -1.4200 ca         1 2SY      -0.023000
     19 C12          2.5740     2.4620    -1.7200 ca         1 2SY      -0.172000
     20 C9           1.4900     3.1180    -1.0880 ca         1 2SY      -0.104000
     21 C4           0.6910     2.4330    -0.1470 ca         1 2SY      -0.148000
     22 H1          -1.5430    -0.7980    -0.5380 ha         1 2SY       0.155000
     23 H2          -5.4140     1.0160    -1.0560 ha         1 2SY       0.120000
     24 H3          -5.0640     2.3750     1.0070 ha         1 2SY       0.108000
     25 H4          -2.9540     2.1560     2.3000 ha         1 2SY       0.111000
     26 H5          -0.6000     1.5030     2.3010 h1         1 2SY       0.058200
     27 H6          -0.9390    -0.2100     2.5630 h1         1 2SY       0.058200
     28 H7           0.7370    -1.9110     1.5360 h4         1 2SY       0.199000
     29 H8           2.5830    -2.9230    -0.1180 hc         1 2SY       0.029700
     30 H9           3.2200    -1.8490    -1.4500 hc         1 2SY       0.029700
     31 H11          3.6970     0.5990    -1.9000 ha         1 2SY       0.132000
     32 H12          3.1830     2.9990    -2.4430 ha         1 2SY       0.095000
     33 H13          1.2710     4.1560    -1.3280 ha         1 2SY       0.088000
     34 H14         -0.1430     2.9320     0.3390 ha         1 2SY       0.096000
@<TRIPOS>BOND
     1     1     2 1   
     2     2     3 ar  
     3     2     4 ar  
     4     3     7 ar  
     5     3    22 1   
     6     4     5 ar  
     7     4    23 1   
     8     5     6 ar  
     9     5    24 1   
    10     6     7 ar  
    11     6    25 1   
    12     7     8 1   
    13     8     9 1   
    14     8    26 1   
    15     8    27 1   
    16     9    10 1   
    17     9    17 1   
    18    10    11 2   
    19    10    28 1   
    20    11    12 1   
    21    11    16 1   
    22    12    13 1   
    23    12    29 1   
    24    12    30 1   
    25    13    14 1   
    26    13    15 1   
    27    16    17 ar  
    28    16    18 ar  
    29    17    21 ar  
    30    18    19 ar  
    31    18    31 1   
    32    19    20 ar  
    33    19    32 1   
    34    20    21 ar  
    35    20    33 1   
    36    21    34 1   
@<TRIPOS>SUBSTRUCTURE
     1 2SY         1 TEMP              0 ****  ****    0 ROOT
