@<TRIPOS>MOLECULE
2SY
   34    36     1     0     0
SMALL
abcg2


@<TRIPOS>ATOM
      1 CL2         -3.4750    -0.6820    -2.5190 cl         1 2SY      -0.213000
      2 C16         -3.3560     0.1300    -0.9900 ca         1 2SY       0.120000
      3 C13         -2.1850     0.0150    -0.2580 ca         1 2SY      -0.075000
      4 C20         -4.4310     0.8760    -0.5340 ca         1 2SY      -0.113000
      5 C17         -4.3140     1.5230     0.6880 ca         1 2SY      -0.110000
      6 C14         -3.1480     1.4220     1.4310 ca         1 2SY      -0.112000
      7 C10         -2.0790     0.6630     0.9670 ca         1 2SY      -0.090300
      8 C6          -0.8350     0.5300     1.8140 c3         1 2SY       0.133900
      9 N2           0.3560     0.2630     1.0560 na         1 2SY      -0.111700
     10 C5           0.9820    -0.9590     0.9430 cc         1 2SY      -0.217100
     11 C7           2.0240    -0.8900     0.0670 cd         1 2SY      -0.017400
     12 C11          2.9460    -1.9790    -0.3510 c3         1 2SY      -0.165200
     13 C15          4.4200    -1.7960     0.0850 c          1 2SY       0.721000
     14 O19          4.6460    -1.0330     1.0400 o          1 2SY      -0.729000
     15 O18          5.2580    -2.4680    -0.5510 o          1 2SY      -0.729000
     16 C3           2.0390     0.4600    -0.4130 ca         1 2SY      -0.079800
     17 C1           0.9800     1.1460     0.2190 ca         1 2SY      -0.044200
     18 C8           2.8510     1.1480    -1.3200 ca         1 2SY      -0.023000
     19 C12          2.5830     2.4780    -1.5830 ca         1 2SY      -0.172000
     20 C9           1.5190     3.1400    -0.9480 ca         1 2SY      -0.104000
     21 C4           0.7040     2.4870    -0.0420 ca         1 2SY      -0.148000
     22 H1          -1.3630    -0.5750    -0.6440 ha         1 2SY       0.155000
     23 H2          -5.3370     0.9560    -1.1180 ha         1 2SY       0.120000
     24 H3          -5.1410     2.1170     1.0560 ha         1 2SY       0.108000
     25 H4          -3.0670     1.9410     2.3790 ha         1 2SY       0.111000
     26 H5          -0.6980     1.4350     2.4110 h1         1 2SY       0.058200
     27 H6          -0.9640    -0.2860     2.5270 h1         1 2SY       0.058200
     28 H7           0.6260    -1.8000     1.5190 h4         1 2SY       0.199000
     29 H8           2.5970    -2.9310     0.0630 hc         1 2SY       0.029700
     30 H9           2.9130    -2.1050    -1.4380 hc         1 2SY       0.029700
     31 H11          3.6720     0.6430    -1.8140 ha         1 2SY       0.132000
     32 H12          3.2000     3.0230    -2.2850 ha         1 2SY       0.095000
     33 H13          1.3310     4.1810    -1.1770 ha         1 2SY       0.088000
     34 H14         -0.1180     3.0050     0.4360 ha         1 2SY       0.096000
@<TRIPOS>BOND
     1     1     2 1   
     2     2     3 ar  
     3     2     4 ar  
     4     3     7 ar  
     5     3    22 1   
     6     4     5 ar  
     7     4    23 1   
     8     5     6 ar  
     9     5    24 1   
    10     6     7 ar  
    11     6    25 1   
    12     7     8 1   
    13     8     9 1   
    14     8    26 1   
    15     8    27 1   
    16     9    10 1   
    17     9    17 1   
    18    10    11 2   
    19    10    28 1   
    20    11    12 1   
    21    11    16 1   
    22    12    13 1   
    23    12    29 1   
    24    12    30 1   
    25    13    14 1   
    26    13    15 1   
    27    16    17 ar  
    28    16    18 ar  
    29    17    21 ar  
    30    18    19 ar  
    31    18    31 1   
    32    19    20 ar  
    33    19    32 1   
    34    20    21 ar  
    35    20    33 1   
    36    21    34 1   
@<TRIPOS>SUBSTRUCTURE
     1 2SY         1 TEMP              0 ****  ****    0 ROOT
