@<TRIPOS>MOLECULE
2SZ
   70    75     1     0     0
SMALL
abcg2


@<TRIPOS>ATOM
      1 C1          11.8050    -1.6250     2.2500 c3         1 2SZ       0.154100
      2 N2          11.0170    -0.9150     1.2610 n3         1 2SZ      -0.709600
      3 C3          10.9350     0.4940     1.5520 c6         1 2SZ       0.165300
      4 C4          10.1540     1.2250     0.4770 c6         1 2SZ       0.166300
      5 N5           8.8220     0.6680     0.3500 n3         1 2SZ      -0.734600
      6 C6           8.8990    -0.7450     0.0490 c6         1 2SZ       0.166300
      7 C7           9.6920    -1.4720     1.1320 c6         1 2SZ       0.165300
      8 C8           7.9950     1.3810    -0.5920 c3         1 2SZ       0.115500
      9 C9           6.5340     1.1090    -0.4030 ca         1 2SZ       0.353300
     10 C10          6.0210     0.8810     0.8420 ca         1 2SZ      -0.144000
     11 C11          4.6650     0.6780     0.9810 ca         1 2SZ      -0.056000
     12 C12          3.8410     0.7250    -0.1520 ca         1 2SZ      -0.035000
     13 C13          4.4490     0.9840    -1.3770 ca         1 2SZ       0.368900
     14 N14          5.7500     1.1630    -1.5030 nb         1 2SZ      -0.680000
     15 C15          2.4330     0.5400    -0.0620 cg         1 2SZ      -0.088000
     16 C16          1.2360     0.4050     0.0150 ch         1 2SZ      -0.109000
     17 C17         -0.1540     0.1140     0.0650 ca         1 2SZ       0.046000
     18 C18         -0.7390    -0.3220     1.2650 ca         1 2SZ      -0.087000
     19 C19         -2.0910    -0.5950     1.3160 ca         1 2SZ      -0.092000
     20 C20         -2.8960    -0.4290     0.1960 cp         1 2SZ      -0.050000
     21 C21         -2.3110    -0.0100    -1.0020 ca         1 2SZ      -0.092000
     22 C22         -0.9580     0.2590    -1.0790 ca         1 2SZ      -0.087000
     23 C23         -4.3430    -0.7100     0.2790 cp         1 2SZ      -0.090000
     24 C24         -4.8070    -1.9390     0.7530 ca         1 2SZ      -0.006000
     25 C25         -6.1570    -2.2330     0.7430 ca         1 2SZ      -0.219600
     26 C26         -7.0170    -1.2800     0.2030 ca         1 2SZ       0.386900
     27 N27         -6.6040    -0.0920    -0.2150 nb         1 2SZ      -0.683000
     28 C28         -5.3210     0.1950    -0.1530 ca         1 2SZ       0.482500
     29 N29         -4.9760     1.5010    -0.5660 na         1 2SZ      -0.216100
     30 C30         -4.1510     2.3730     0.1060 cc         1 2SZ       0.442700
     31 N31         -4.0220     3.5280    -0.4800 nd         1 2SZ      -0.561100
     32 C32         -4.8010     3.4410    -1.6250 ca         1 2SZ       0.064400
     33 C33         -5.4190     2.1770    -1.6990 ca         1 2SZ      -0.056200
     34 C34         -6.2400     1.8120    -2.7630 ca         1 2SZ      -0.095000
     35 C35         -6.4180     2.7590    -3.7550 ca         1 2SZ      -0.099000
     36 C36         -5.8180     4.0350    -3.6810 ca         1 2SZ      -0.132000
     37 C37         -5.0000     4.3840    -2.6230 ca         1 2SZ      -0.051000
     38 C38         -6.6040    -3.5530     1.2520 c          1 2SZ       0.616700
     39 O39         -5.8670    -4.5310     1.2140 o          1 2SZ      -0.554100
     40 N40         -7.8870    -3.5680     1.6870 ns         1 2SZ      -0.372400
     41 O41         -8.3740    -4.6780     2.2810 oh         1 2SZ      -0.422100
     42 H1          11.9170    -2.6720     2.1510 h1         1 2SZ       0.027367
     43 H2          12.8000    -1.1850     2.2920 h1         1 2SZ       0.027367
     44 H3          11.3690    -1.6110     3.2670 h1         1 2SZ       0.027367
     45 H5          10.4630     0.6790     2.5230 h1         1 2SZ       0.037700
     46 H6          11.9360     0.9060     1.5950 h1         1 2SZ       0.037700
     47 H7          10.0590     2.2980     0.7440 h1         1 2SZ       0.041200
     48 H8          10.7160     1.1780    -0.4800 h1         1 2SZ       0.041200
     49 H10          7.8980    -1.1560     0.0100 h1         1 2SZ       0.041200
     50 H11          9.3660    -0.9270    -0.9380 h1         1 2SZ       0.041200
     51 H12          9.7820    -2.5330     0.8460 h1         1 2SZ       0.037700
     52 H13          9.1260    -1.4210     2.0950 h1         1 2SZ       0.037700
     53 H14          8.1520     2.4450    -0.4400 h1         1 2SZ       0.055200
     54 H15          8.2610     1.1900    -1.6400 h1         1 2SZ       0.055200
     55 H16          6.6940     0.8390     1.7040 ha         1 2SZ       0.147000
     56 H17          4.2310     0.4820     1.9640 ha         1 2SZ       0.125000
     57 H18          3.8520     1.0560    -2.2740 h4         1 2SZ       0.026100
     58 H19         -0.1270    -0.4680     2.1620 ha         1 2SZ       0.128000
     59 H20         -2.5310    -0.9200     2.2500 ha         1 2SZ       0.122000
     60 H21         -2.9140     0.1040    -1.8960 ha         1 2SZ       0.122000
     61 H22         -0.5200     0.5880    -2.0040 ha         1 2SZ       0.128000
     62 H23         -4.0940    -2.6810     1.1010 ha         1 2SZ       0.153000
     63 H24         -8.0720    -1.4780     0.1010 h4         1 2SZ       0.028100
     64 H25         -3.7000     2.0910     1.0400 h5         1 2SZ       0.068800
     65 H26         -6.7170     0.8440    -2.8150 ha         1 2SZ       0.128000
     66 H27         -7.0570     2.5310    -4.6050 ha         1 2SZ       0.114000
     67 H28         -5.9990     4.7530    -4.4710 ha         1 2SZ       0.115000
     68 H29         -4.5290     5.3550    -2.5710 ha         1 2SZ       0.130000
     69 H30         -8.3600    -2.7400     1.9350 hn         1 2SZ       0.330500
     70 H31         -8.9260    -5.0940     1.6110 ho         1 2SZ       0.450000
@<TRIPOS>BOND
     1     1     2 1   
     2     1    42 1   
     3     1    43 1   
     4     1    44 1   
     5     2     3 1   
     6     2     7 1   
     7     3     4 1   
     8     3    45 1   
     9     3    46 1   
    10     4     5 1   
    11     4    47 1   
    12     4    48 1   
    13     5     6 1   
    14     5     8 1   
    15     6     7 1   
    16     6    49 1   
    17     6    50 1   
    18     7    51 1   
    19     7    52 1   
    20     8     9 1   
    21     8    53 1   
    22     8    54 1   
    23     9    10 ar  
    24     9    14 ar  
    25    10    11 ar  
    26    10    55 1   
    27    11    12 ar  
    28    11    56 1   
    29    12    13 ar  
    30    12    15 1   
    31    13    14 ar  
    32    13    57 1   
    33    15    16 3   
    34    16    17 1   
    35    17    18 ar  
    36    17    22 ar  
    37    18    19 ar  
    38    18    58 1   
    39    19    20 ar  
    40    19    59 1   
    41    20    21 ar  
    42    20    23 1   
    43    21    22 ar  
    44    21    60 1   
    45    22    61 1   
    46    23    24 ar  
    47    23    28 ar  
    48    24    25 ar  
    49    24    62 1   
    50    25    26 ar  
    51    25    38 1   
    52    26    27 ar  
    53    26    63 1   
    54    27    28 ar  
    55    28    29 1   
    56    29    30 1   
    57    29    33 1   
    58    30    31 2   
    59    30    64 1   
    60    31    32 1   
    61    32    33 ar  
    62    32    37 ar  
    63    33    34 ar  
    64    34    35 ar  
    65    34    65 1   
    66    35    36 ar  
    67    35    66 1   
    68    36    37 ar  
    69    36    67 1   
    70    37    68 1   
    71    38    39 2   
    72    38    40 1   
    73    40    41 1   
    74    40    69 1   
    75    41    70 1   
@<TRIPOS>SUBSTRUCTURE
     1 2SZ         1 TEMP              0 ****  ****    0 ROOT
