@<TRIPOS>MOLECULE
2SZ
   70    75     1     0     0
SMALL
No Charge or Current Charge


@<TRIPOS>ATOM
      1 C1          11.9440    -1.8260     1.9970 c3         1 2SZ       0.154100
      2 N2          11.0710    -1.0470     1.0950 n3         1 2SZ      -0.709600
      3 C3          11.1800     0.4280     1.3160 c6         1 2SZ       0.165300
      4 C4          10.2710     1.2430     0.3390 c6         1 2SZ       0.166300
      5 N5           8.8370     0.8210     0.4090 n3         1 2SZ      -0.734600
      6 C6           8.7290    -0.6570     0.1900 c6         1 2SZ       0.166300
      7 C7           9.6400    -1.4710     1.1650 c6         1 2SZ       0.165300
      8 C8           7.9580     1.6160    -0.4990 c3         1 2SZ       0.115500
      9 C9           6.4490     1.3470    -0.3620 ca         1 2SZ       0.353300
     10 C10          5.8160     1.4690     0.8900 ca         1 2SZ      -0.144000
     11 C11          4.4380     1.2160     0.9980 ca         1 2SZ      -0.056000
     12 C12          3.7370     0.8470    -0.1620 ca         1 2SZ      -0.035000
     13 C13          4.4450     0.7470    -1.3780 ca         1 2SZ       0.368900
     14 N14          5.7750     0.9910    -1.4850 nb         1 2SZ      -0.680000
     15 C15          2.3290     0.5760    -0.1080 cg         1 2SZ      -0.088000
     16 C16          1.1320     0.3460    -0.0500 ch         1 2SZ      -0.109000
     17 C17         -0.2670     0.0900     0.0310 ca         1 2SZ       0.046000
     18 C18         -0.8470    -0.2930     1.2540 ca         1 2SZ      -0.087000
     19 C19         -2.2280    -0.5440     1.3330 ca         1 2SZ      -0.092000
     20 C20         -3.0580    -0.4100     0.1950 cp         1 2SZ      -0.050000
     21 C21         -2.4560    -0.0370    -1.0320 ca         1 2SZ      -0.092000
     22 C22         -1.0760     0.2150    -1.1130 ca         1 2SZ      -0.087000
     23 C23         -4.5280    -0.6820     0.2940 cp         1 2SZ      -0.090000
     24 C24         -4.9560    -1.9570     0.7280 ca         1 2SZ      -0.006000
     25 C25         -6.3320    -2.2460     0.8260 ca         1 2SZ      -0.219600
     26 C26         -7.2460    -1.2350     0.4840 ca         1 2SZ       0.386900
     27 N27         -6.8700    -0.0040     0.0810 nb         1 2SZ      -0.683000
     28 C28         -5.5510     0.2690    -0.0120 ca         1 2SZ       0.482500
     29 N29         -5.0230     1.4990    -0.3740 na         1 2SZ      -0.216100
     30 C30         -4.5580     2.4140     0.5600 cc         1 2SZ       0.442700
     31 N31         -4.3110     3.6000    -0.0430 nd         1 2SZ      -0.561100
     32 C32         -4.6740     3.3860    -1.3770 ca         1 2SZ       0.064400
     33 C33         -5.1230     2.1100    -1.5820 ca         1 2SZ      -0.056200
     34 C34         -5.5490     1.6340    -2.8280 ca         1 2SZ      -0.095000
     35 C35         -5.5070     2.5360    -3.9120 ca         1 2SZ      -0.099000
     36 C36         -5.0460     3.8620    -3.7190 ca         1 2SZ      -0.132000
     37 C37         -4.6230     4.2970    -2.4420 ca         1 2SZ      -0.051000
     38 C38         -6.7920    -3.6060     1.2770 c          1 2SZ       0.616700
     39 O39         -5.9920    -4.5000     1.5230 o          1 2SZ      -0.554100
     40 N40         -8.1660    -3.8100     1.3880 ns         1 2SZ      -0.372400
     41 O41         -8.6920    -4.9960     2.0360 oh         1 2SZ      -0.422100
     42 H1          11.8750    -2.8990     1.7710 h1         1 2SZ       0.027367
     43 H2          12.9930    -1.5220     1.8800 h1         1 2SZ       0.027367
     44 H3          11.6570    -1.6760     3.0470 h1         1 2SZ       0.027367
     45 H5          10.8930     0.6770     2.3480 h1         1 2SZ       0.037700
     46 H6          12.2210     0.7570     1.1830 h1         1 2SZ       0.037700
     47 H7          10.3660     2.3110     0.5830 h1         1 2SZ       0.041200
     48 H8          10.6540     1.1120    -0.6840 h1         1 2SZ       0.041200
     49 H10          7.6910    -0.9920     0.3260 h1         1 2SZ       0.041200
     50 H11          9.0130    -0.9070    -0.8430 h1         1 2SZ       0.041200
     51 H12          9.5470    -2.5400     0.9220 h1         1 2SZ       0.037700
     52 H13          9.2570    -1.3410     2.1890 h1         1 2SZ       0.037700
     53 H14          8.1100     2.6870    -0.3090 h1         1 2SZ       0.055200
     54 H15          8.2520     1.4420    -1.5440 h1         1 2SZ       0.055200
     55 H16          6.3950     1.7530     1.7640 ha         1 2SZ       0.147000
     56 H17          3.9310     1.3040     1.9570 ha         1 2SZ       0.125000
     57 H18          3.9340     0.4640    -2.2970 h4         1 2SZ       0.026100
     58 H19         -0.2290    -0.3960     2.1430 ha         1 2SZ       0.128000
     59 H20         -2.6620    -0.8360     2.2860 ha         1 2SZ       0.122000
     60 H21         -3.0650     0.0550    -1.9280 ha         1 2SZ       0.122000
     61 H22         -0.6360     0.5050    -2.0650 ha         1 2SZ       0.128000
     62 H23         -4.2130    -2.7140     0.9760 ha         1 2SZ       0.153000
     63 H24         -8.3210    -1.3960     0.5330 h4         1 2SZ       0.028100
     64 H25         -4.4340     2.1770     1.6110 h5         1 2SZ       0.068800
     65 H26         -5.8960     0.6120    -2.9580 ha         1 2SZ       0.128000
     66 H27         -5.8280     2.2120    -4.8990 ha         1 2SZ       0.114000
     67 H28         -5.0160     4.5510    -4.5600 ha         1 2SZ       0.115000
     68 H29         -4.2690     5.3130    -2.2860 ha         1 2SZ       0.130000
     69 H30         -8.8030    -3.0190     1.3270 hn         1 2SZ       0.330500
     70 H31         -9.3500    -5.3430     1.3880 ho         1 2SZ       0.450000
@<TRIPOS>BOND
     1     1     2 1   
     2     1    42 1   
     3     1    43 1   
     4     1    44 1   
     5     2     3 1   
     6     2     7 1   
     7     3     4 1   
     8     3    45 1   
     9     3    46 1   
    10     4     5 1   
    11     4    47 1   
    12     4    48 1   
    13     5     6 1   
    14     5     8 1   
    15     6     7 1   
    16     6    49 1   
    17     6    50 1   
    18     7    51 1   
    19     7    52 1   
    20     8     9 1   
    21     8    53 1   
    22     8    54 1   
    23     9    10 ar  
    24     9    14 ar  
    25    10    11 ar  
    26    10    55 1   
    27    11    12 ar  
    28    11    56 1   
    29    12    13 ar  
    30    12    15 1   
    31    13    14 ar  
    32    13    57 1   
    33    15    16 3   
    34    16    17 1   
    35    17    18 ar  
    36    17    22 ar  
    37    18    19 ar  
    38    18    58 1   
    39    19    20 ar  
    40    19    59 1   
    41    20    21 ar  
    42    20    23 1   
    43    21    22 ar  
    44    21    60 1   
    45    22    61 1   
    46    23    24 ar  
    47    23    28 ar  
    48    24    25 ar  
    49    24    62 1   
    50    25    26 ar  
    51    25    38 1   
    52    26    27 ar  
    53    26    63 1   
    54    27    28 ar  
    55    28    29 1   
    56    29    30 1   
    57    29    33 1   
    58    30    31 2   
    59    30    64 1   
    60    31    32 1   
    61    32    33 ar  
    62    32    37 ar  
    63    33    34 ar  
    64    34    35 ar  
    65    34    65 1   
    66    35    36 ar  
    67    35    66 1   
    68    36    37 ar  
    69    36    67 1   
    70    37    68 1   
    71    38    39 2   
    72    38    40 1   
    73    40    41 1   
    74    40    69 1   
    75    41    70 1   
@<TRIPOS>SUBSTRUCTURE
     1 2SZ         1 TEMP              0 ****  ****    0 ROOT
