@<TRIPOS>MOLECULE
2T0
   28    30     1     0     0
SMALL
bcc


@<TRIPOS>ATOM
      1 C1           1.7430     0.5140     0.6980 ca         1 2T0       0.282100
      2 C2           1.7840     1.9010     0.5520 ca         1 2T0      -0.182000
      3 C3           0.6160     2.6180     0.3250 ca         1 2T0      -0.120000
      4 C4          -0.6140     1.9860     0.2140 ca         1 2T0      -0.176300
      5 C52         -0.6520     0.5890     0.3380 ca         1 2T0      -0.142500
      6 C6           0.5140    -0.1330     0.5690 ca         1 2T0      -0.137000
      7 P8           3.7930    -0.8150    -0.3560 p5         1 2T0       1.247900
      8 C9          -3.0000     0.6100    -0.3500 cc         1 2T0      -0.176700
      9 C10         -1.9470    -0.0680     0.1720 cd         1 2T0       0.501800
     10 S11         -4.3510    -0.4620    -0.4980 ss         1 2T0      -0.377300
     11 C12         -3.3680    -1.7410     0.1810 cc         1 2T0       0.686300
     12 N13         -2.1580    -1.3910     0.4750 nd         1 2T0      -0.669000
     13 N14         -3.8660    -2.9950     0.3170 nv         1 2T0      -0.934500
     14 O18          2.8540    -0.1800     0.9790 os         1 2T0      -0.433500
     15 C20         -2.9360     2.0310    -0.8000 c6         1 2T0       0.024900
     16 C21         -1.8980     2.7600     0.0540 c6         1 2T0       0.000900
     17 O26          2.8310    -1.7540    -1.0630 o          1 2T0      -0.897500
     18 O27          4.1770     0.4240    -1.1470 o          1 2T0      -0.897500
     19 O28          4.9170    -1.4820     0.4170 o          1 2T0      -0.897500
     20 H2           2.7320     2.4180     0.6310 ha         1 2T0       0.143000
     21 H3           0.6690     3.6970     0.2300 ha         1 2T0       0.085000
     22 H6           0.4710    -1.2110     0.6560 ha         1 2T0       0.164000
     23 HN14        -4.8640    -3.1050     0.3890 hn         1 2T0       0.403300
     24 HN1A        -3.3490    -3.5980     0.9390 hn         1 2T0       0.403300
     25 H20         -2.6630     2.0770    -1.8600 hc         1 2T0       0.029200
     26 H7          -3.9020     2.5280    -0.7060 hc         1 2T0       0.029200
     27 H21         -2.3310     2.9340     1.0460 hc         1 2T0       0.018700
     28 H9          -1.6950     3.7450    -0.3700 hc         1 2T0       0.018700
@<TRIPOS>BOND
     1     1     2 ar  
     2     1     6 ar  
     3     1    14 1   
     4     2     3 ar  
     5     2    20 1   
     6     3     4 ar  
     7     3    21 1   
     8     4     5 ar  
     9     4    16 1   
    10     5     6 ar  
    11     5     9 1   
    12     6    22 1   
    13     7    14 1   
    14     7    17 1   
    15     7    18 1   
    16     7    19 1   
    17     8     9 2   
    18     8    10 1   
    19     8    15 1   
    20     9    12 1   
    21    10    11 1   
    22    11    12 2   
    23    11    13 1   
    24    13    23 1   
    25    13    24 1   
    26    15    16 1   
    27    15    25 1   
    28    15    26 1   
    29    16    27 1   
    30    16    28 1   
@<TRIPOS>SUBSTRUCTURE
     1 2T0         1 TEMP              0 ****  ****    0 ROOT
