@<TRIPOS>MOLECULE
2T0
   28    30     1     0     0
SMALL
No Charge or Current Charge


@<TRIPOS>ATOM
      1 C1           1.8590     0.8140     0.3130 ca         1 2T0       0.282100
      2 C2           1.7840     2.2060     0.4860 ca         1 2T0      -0.164000
      3 C3           0.5430     2.8620     0.4760 ca         1 2T0      -0.102000
      4 C4          -0.6410     2.1320     0.2750 ca         1 2T0      -0.176300
      5 C52         -0.5820     0.7320     0.0830 ca         1 2T0      -0.142500
      6 C6           0.6700     0.0760     0.1200 ca         1 2T0      -0.119000
      7 P8           3.5010    -1.3140     0.1750 p5         1 2T0       1.247900
      8 C9          -3.0420     0.6470    -0.3040 cc         1 2T0      -0.256300
      9 C10         -1.8430    -0.0060    -0.1180 cd         1 2T0       0.436500
     10 S11         -4.3530    -0.4800    -0.4860 ss         1 2T0      -0.232400
     11 C12         -3.1640    -1.7310    -0.2840 cc         1 2T0       0.686300
     12 N13         -1.9200    -1.3910    -0.0970 nd         1 2T0      -0.669000
     13 N14         -3.4750    -3.0290    -0.2940 nv         1 2T0      -1.044900
     14 O18          3.1080     0.2410     0.3460 os         1 2T0      -0.433500
     15 C20         -3.1400     2.1450    -0.4360 c6         1 2T0       0.024900
     16 C21         -2.0020     2.8480     0.3520 c6         1 2T0       0.000900
     17 O26          2.8590    -2.1220     1.2490 o          1 2T0      -0.897500
     18 O27          3.0540    -1.8080    -1.1580 o          1 2T0      -0.897500
     19 O28          4.9800    -1.4530     0.2760 o          1 2T0      -0.897500
     20 H2           2.6960     2.7760     0.6400 ha         1 2T0       0.125000
     21 H3           0.5030     3.9370     0.6350 ha         1 2T0       0.067000
     22 H6           0.7110    -1.0000    -0.0140 ha         1 2T0       0.146000
     23 HN14        -4.4450    -3.2650    -0.1180 hn         1 2T0       0.458500
     24 HN1A        -2.7750    -3.6510     0.0900 hn         1 2T0       0.458500
     25 H20         -3.0640     2.4230    -1.4960 hc         1 2T0       0.029200
     26 H7          -4.1150     2.5130    -0.0900 hc         1 2T0       0.029200
     27 H21         -2.2950     2.9110     1.4090 hc         1 2T0       0.018700
     28 H9          -1.9070     3.8850     0.0030 hc         1 2T0       0.018700
@<TRIPOS>BOND
     1     1     2 ar  
     2     1     6 ar  
     3     1    14 1   
     4     2     3 ar  
     5     2    20 1   
     6     3     4 ar  
     7     3    21 1   
     8     4     5 ar  
     9     4    16 1   
    10     5     6 ar  
    11     5     9 1   
    12     6    22 1   
    13     7    14 1   
    14     7    17 1   
    15     7    18 1   
    16     7    19 1   
    17     8     9 2   
    18     8    10 1   
    19     8    15 1   
    20     9    12 1   
    21    10    11 1   
    22    11    12 2   
    23    11    13 1   
    24    13    23 1   
    25    13    24 1   
    26    15    16 1   
    27    15    25 1   
    28    15    26 1   
    29    16    27 1   
    30    16    28 1   
@<TRIPOS>SUBSTRUCTURE
     1 2T0         1 TEMP              0 ****  ****    0 ROOT
