@<TRIPOS>MOLECULE
2T1
   46    48     1     0     0
SMALL
abcg2


@<TRIPOS>ATOM
      1 N1           0.6350     0.1840     1.0700 n          1 2T1      -0.434800
      2 N3           2.8140     0.1470     0.3230 ns         1 2T1      -0.186000
      3 C4          -4.6320     0.0200    -0.4320 ca         1 2T1      -0.194300
      4 C5          -5.6770     0.5580    -1.1810 ca         1 2T1      -0.071000
      5 C6          -5.4840     1.6880    -1.9570 ca         1 2T1      -0.129000
      6 C7          -2.1580     0.1050     0.3140 c6         1 2T1      -0.032400
      7 C8          -1.0430    -0.3350    -0.6400 c6         1 2T1      -0.090900
      8 C10         -0.3860     0.6020     2.0120 c6         1 2T1       0.108500
      9 C13          4.1130     0.5670     0.0790 ca         1 2T1       0.021000
     10 C15          5.0310    -0.3950    -0.4050 ca         1 2T1      -0.205600
     11 C17          4.5360     1.8940     0.2360 ca         1 2T1      -0.177000
     12 C21          4.6680    -1.8540    -0.6510 c          1 2T1       0.723600
     13 O3           5.5740    -2.6170    -1.0110 o          1 2T1      -0.712000
     14 O2           3.4650    -2.1930    -0.4770 o          1 2T1      -0.712000
     15 C16          6.3350     0.0090    -0.6830 ca         1 2T1      -0.060000
     16 C19          6.7550     1.3170    -0.5120 ca         1 2T1      -0.182000
     17 C18          5.8400     2.2560    -0.0560 ca         1 2T1      -0.103000
     18 C14          1.8700     0.7630     1.1000 c          1 2T1       0.667100
     19 O1           2.1040     1.7520     1.7890 o          1 2T1      -0.677100
     20 C11         -1.6150     1.1460     1.2970 c6         1 2T1      -0.090900
     21 C9           0.1840    -0.8210     0.1260 c6         1 2T1       0.108500
     22 C3          -3.3620     0.6150    -0.4490 ca         1 2T1      -0.001300
     23 C2          -3.1980     1.7540    -1.2370 ca         1 2T1      -0.115000
     24 C1          -4.2350     2.2890    -1.9820 ca         1 2T1      -0.082000
     25 F1          -4.1300    -2.2440     0.0240 f          1 2T1      -0.116667
     26 F3          -4.6940    -1.0050     1.6970 f          1 2T1      -0.116667
     27 F2          -6.1680    -1.6300     0.2740 f          1 2T1      -0.116667
     28 HN3          2.7280    -0.8540     0.0690 hn         1 2T1       0.231000
     29 H5          -6.6550     0.1000    -1.1690 ha         1 2T1       0.123000
     30 H6          -6.3030     2.0910    -2.5350 ha         1 2T1       0.113000
     31 H7          -2.4190    -0.7700     0.9080 hc         1 2T1       0.060700
     32 H8          -1.3960    -1.1430    -1.2840 hc         1 2T1       0.047700
     33 H8A         -0.7520     0.4940    -1.2900 hc         1 2T1       0.047700
     34 H10         -0.6760    -0.2650     2.6190 h1         1 2T1       0.060950
     35 H10A         0.0260     1.3470     2.6850 h1         1 2T1       0.060950
     36 H17          3.8460     2.6460     0.5830 ha         1 2T1       0.122000
     37 H16          7.0330    -0.7340    -1.0460 ha         1 2T1       0.126000
     38 H19          7.7750     1.6000    -0.7370 ha         1 2T1       0.088000
     39 H18          6.1380     3.2900     0.0720 ha         1 2T1       0.083000
     40 H11         -1.3480     2.0690     0.7760 hc         1 2T1       0.047700
     41 H11A        -2.3780     1.3970     2.0370 hc         1 2T1       0.047700
     42 H9           0.9620    -1.0650    -0.5910 h1         1 2T1       0.060950
     43 H9A         -0.0590    -1.7450     0.6640 h1         1 2T1       0.060950
     44 H2          -2.2300     2.2380    -1.2740 ha         1 2T1       0.129000
     45 H1          -4.0670     3.1740    -2.5810 ha         1 2T1       0.114000
     46 C12         -4.9050    -1.2080     0.3860 c3         1 2T1       0.354300
@<TRIPOS>BOND
     1     1     8 1   
     2     1    18 1   
     3     1    21 1   
     4     2     9 1   
     5     2    18 1   
     6     2    28 1   
     7     3     4 ar  
     8     3    22 ar  
     9     3    46 1   
    10     4     5 ar  
    11     4    29 1   
    12     5    24 ar  
    13     5    30 1   
    14     6     7 1   
    15     6    20 1   
    16     6    22 1   
    17     6    31 1   
    18     7    21 1   
    19     7    32 1   
    20     7    33 1   
    21     8    20 1   
    22     8    34 1   
    23     8    35 1   
    24     9    10 ar  
    25     9    11 ar  
    26    10    12 1   
    27    10    15 ar  
    28    11    17 ar  
    29    11    36 1   
    30    12    13 1   
    31    12    14 1   
    32    15    16 ar  
    33    15    37 1   
    34    16    17 ar  
    35    16    38 1   
    36    17    39 1   
    37    18    19 2   
    38    20    40 1   
    39    20    41 1   
    40    21    42 1   
    41    21    43 1   
    42    22    23 ar  
    43    23    24 ar  
    44    23    44 1   
    45    24    45 1   
    46    25    46 1   
    47    26    46 1   
    48    27    46 1   
@<TRIPOS>SUBSTRUCTURE
     1 2T1         1 TEMP              0 ****  ****    0 ROOT
