@<TRIPOS>MOLECULE
2T1
   46    48     1     0     0
SMALL
No Charge or Current Charge


@<TRIPOS>ATOM
      1 N1           0.6320     0.1340     1.3280 n          1 2T1      -0.434800
      2 N3           2.8240     0.2360     0.4100 ns         1 2T1      -0.186000
      3 C4          -4.6430     0.0020    -0.4670 ca         1 2T1      -0.194300
      4 C5          -5.6470     0.5550    -1.3020 ca         1 2T1      -0.071000
      5 C6          -5.3780     1.6480    -2.1370 ca         1 2T1      -0.129000
      6 C7          -2.1580     0.0670     0.3740 c6         1 2T1      -0.032400
      7 C8          -0.9750    -0.4460    -0.4950 c6         1 2T1      -0.090900
      8 C10         -0.4650     0.6120     2.2120 c6         1 2T1       0.108500
      9 C13          4.1480     0.6180     0.0590 ca         1 2T1       0.021000
     10 C15          4.9830    -0.3120    -0.6190 ca         1 2T1      -0.205600
     11 C17          4.6480     1.9080     0.3500 ca         1 2T1      -0.177000
     12 C21          4.5130    -1.7080    -0.9790 c          1 2T1       0.723600
     13 O3           5.3280    -2.6180    -0.9350 o          1 2T1      -0.712000
     14 O2           3.3510    -1.8670    -1.3230 o          1 2T1      -0.712000
     15 C16          6.3020     0.0660    -0.9600 ca         1 2T1      -0.060000
     16 C19          6.7850     1.3470    -0.6520 ca         1 2T1      -0.182000
     17 C18          5.9570     2.2690    -0.0010 ca         1 2T1      -0.103000
     18 C14          1.9080     0.7500     1.3150 c          1 2T1       0.667100
     19 O1           2.1680     1.6690     2.0820 o          1 2T1      -0.677100
     20 C11         -1.6520     1.1440     1.3740 c6         1 2T1      -0.090900
     21 C9           0.1930    -0.9400     0.3910 c6         1 2T1       0.108500
     22 C3          -3.3360     0.5820    -0.4910 ca         1 2T1      -0.001300
     23 C2          -3.0910     1.6840    -1.3420 ca         1 2T1      -0.115000
     24 C1          -4.0990     2.2140    -2.1580 ca         1 2T1      -0.082000
     25 F1          -4.2490    -2.2880     0.1420 f          1 2T1      -0.116667
     26 F3          -4.8240    -0.9230     1.7430 f          1 2T1      -0.116667
     27 F2          -6.2900    -1.5970     0.3040 f          1 2T1      -0.116667
     28 HN3          2.4900    -0.5620    -0.1140 hn         1 2T1       0.231000
     29 H5          -6.6540     0.1440    -1.3140 ha         1 2T1       0.123000
     30 H6          -6.1630     2.0570    -2.7690 ha         1 2T1       0.113000
     31 H7          -2.4740    -0.7850     0.9840 hc         1 2T1       0.060700
     32 H8          -1.3160    -1.2630    -1.1450 hc         1 2T1       0.047700
     33 H8A         -0.6090     0.3490    -1.1580 hc         1 2T1       0.047700
     34 H10         -0.8050    -0.2220     2.8420 h1         1 2T1       0.060950
     35 H10A        -0.1160     1.4040     2.8900 h1         1 2T1       0.060950
     36 H17          4.0260     2.6520     0.8380 ha         1 2T1       0.122000
     37 H16          6.9560    -0.6360    -1.4750 ha         1 2T1       0.126000
     38 H19          7.8000     1.6250    -0.9250 ha         1 2T1       0.088000
     39 H18          6.3270     3.2660     0.2290 ha         1 2T1       0.083000
     40 H11         -1.3340     2.0490     0.8400 hc         1 2T1       0.047700
     41 H11A        -2.4700     1.4460     2.0430 hc         1 2T1       0.047700
     42 H9           1.0070    -1.2910    -0.2550 h1         1 2T1       0.060950
     43 H9A         -0.1390    -1.8080     0.9780 h1         1 2T1       0.060950
     44 H2          -2.1060     2.1410    -1.3750 ha         1 2T1       0.129000
     45 H1          -3.8880     3.0630    -2.8050 ha         1 2T1       0.114000
     46 C12         -5.0020    -1.2020     0.4310 c3         1 2T1       0.354300
@<TRIPOS>BOND
     1     1     8 1   
     2     1    18 1   
     3     1    21 1   
     4     2     9 1   
     5     2    18 1   
     6     2    28 1   
     7     3     4 ar  
     8     3    22 ar  
     9     3    46 1   
    10     4     5 ar  
    11     4    29 1   
    12     5    24 ar  
    13     5    30 1   
    14     6     7 1   
    15     6    20 1   
    16     6    22 1   
    17     6    31 1   
    18     7    21 1   
    19     7    32 1   
    20     7    33 1   
    21     8    20 1   
    22     8    34 1   
    23     8    35 1   
    24     9    10 ar  
    25     9    11 ar  
    26    10    12 1   
    27    10    15 ar  
    28    11    17 ar  
    29    11    36 1   
    30    12    13 1   
    31    12    14 1   
    32    15    16 ar  
    33    15    37 1   
    34    16    17 ar  
    35    16    38 1   
    36    17    39 1   
    37    18    19 2   
    38    20    40 1   
    39    20    41 1   
    40    21    42 1   
    41    21    43 1   
    42    22    23 ar  
    43    23    24 ar  
    44    23    44 1   
    45    24    45 1   
    46    25    46 1   
    47    26    46 1   
    48    27    46 1   
@<TRIPOS>SUBSTRUCTURE
     1 2T1         1 TEMP              0 ****  ****    0 ROOT
