@<TRIPOS>MOLECULE
2T2
   36    38     1     0     0
SMALL
abcg2


@<TRIPOS>ATOM
      1 O3          -4.7710     2.6030    -1.0550 o          1 2T2      -0.730000
      2 C2          -4.0670     1.8020    -0.4040 c          1 2T2       0.720000
      3 O1          -4.4500     1.0340     0.4940 o          1 2T2      -0.730000
      4 C4          -2.5650     1.7980    -0.7730 c3         1 2T2      -0.165200
      5 C5          -1.7380     0.7460    -0.1240 cc         1 2T2      -0.018400
      6 C22         -1.8490    -0.6710    -0.3060 ca         1 2T2      -0.072800
      7 C21         -2.7180    -1.4760    -1.0490 ca         1 2T2      -0.015000
      8 C20         -2.5490    -2.8480    -1.0220 ca         1 2T2      -0.175000
      9 C19         -1.5330    -3.4340    -0.2520 ca         1 2T2      -0.104000
     10 C18         -0.6670    -2.6630     0.5020 ca         1 2T2      -0.155000
     11 C17         -0.8370    -1.2790     0.4690 ca         1 2T2      -0.042200
     12 N7          -0.1540    -0.2830     1.1130 na         1 2T2      -0.104700
     13 C6          -0.6900     0.9250     0.7300 cd         1 2T2      -0.219100
     14 C8           1.0790    -0.4370     1.8500 c3         1 2T2       0.132900
     15 C9           2.2860    -0.3940     0.9450 ca         1 2T2      -0.106300
     16 C14          2.8310     0.8290     0.5750 ca         1 2T2      -0.065000
     17 C13          3.9170     0.8920    -0.2980 ca         1 2T2       0.015000
     18 C15          4.4700     2.1560    -0.6630 cg         1 2T2      -0.112000
     19 C16          4.9340     3.2230    -0.9730 c1         1 2T2      -0.246000
     20 C12          4.4630    -0.2900    -0.8050 ca         1 2T2      -0.088000
     21 C11          3.9250    -1.5110    -0.4320 ca         1 2T2      -0.120000
     22 C10          2.8440    -1.5640     0.4380 ca         1 2T2      -0.080000
     23 H2          -2.4850     1.7160    -1.8630 hc         1 2T2       0.030200
     24 H3          -2.1560     2.7840    -0.5300 hc         1 2T2       0.030200
     25 H4          -3.5070    -1.0310    -1.6420 ha         1 2T2       0.133000
     26 H5          -3.2100    -3.4830    -1.5980 ha         1 2T2       0.095000
     27 H6          -1.4230    -4.5110    -0.2460 ha         1 2T2       0.086000
     28 H7           0.1090    -3.1320     1.0930 ha         1 2T2       0.089000
     29 H8          -0.2760     1.8460     1.1130 h4         1 2T2       0.196000
     30 H9           1.1320     0.3610     2.5910 h1         1 2T2       0.055700
     31 H10          1.0470    -1.3750     2.4050 h1         1 2T2       0.055700
     32 H11          2.4140     1.7480     0.9700 ha         1 2T2       0.123000
     33 H12          5.3480     4.1670    -1.2440 ha         1 2T2       0.252000
     34 H13          5.3060    -0.2480    -1.4810 ha         1 2T2       0.112000
     35 H14          4.3530    -2.4270    -0.8170 ha         1 2T2       0.109000
     36 H15          2.4380    -2.5260     0.7260 ha         1 2T2       0.116000
@<TRIPOS>BOND
     1     1     2 1   
     2     2     3 1   
     3     2     4 1   
     4     4     5 1   
     5     4    23 1   
     6     4    24 1   
     7     5     6 1   
     8     5    13 2   
     9     6     7 ar  
    10     6    11 ar  
    11     7     8 ar  
    12     7    25 1   
    13     8     9 ar  
    14     8    26 1   
    15     9    10 ar  
    16     9    27 1   
    17    10    11 ar  
    18    10    28 1   
    19    11    12 1   
    20    12    13 1   
    21    12    14 1   
    22    13    29 1   
    23    14    15 1   
    24    14    30 1   
    25    14    31 1   
    26    15    16 ar  
    27    15    22 ar  
    28    16    17 ar  
    29    16    32 1   
    30    17    18 1   
    31    17    20 ar  
    32    18    19 3   
    33    19    33 1   
    34    20    21 ar  
    35    20    34 1   
    36    21    22 ar  
    37    21    35 1   
    38    22    36 1   
@<TRIPOS>SUBSTRUCTURE
     1 2T2         1 TEMP              0 ****  ****    0 ROOT
