@<TRIPOS>MOLECULE
2T2
   36    38     1     0     0
SMALL
No Charge or Current Charge


@<TRIPOS>ATOM
      1 O3          -5.1480     0.9500    -0.2010 o          1 2T2      -0.730000
      2 C2          -4.3800     1.6460     0.4490 c          1 2T2       0.720000
      3 O1          -4.6020     1.9990     1.5980 o          1 2T2      -0.730000
      4 C4          -3.0080     1.9790    -0.1600 c3         1 2T2      -0.165200
      5 C5          -1.9730     0.9320     0.1630 cc         1 2T2      -0.018400
      6 C22         -1.7830    -0.3310    -0.5010 ca         1 2T2      -0.072800
      7 C21         -2.4860    -0.9050    -1.5710 ca         1 2T2      -0.015000
      8 C20         -2.0720    -2.1740    -2.0300 ca         1 2T2      -0.175000
      9 C19         -0.9810    -2.8340    -1.4200 ca         1 2T2      -0.104000
     10 C18         -0.2950    -2.2300    -0.3450 ca         1 2T2      -0.155000
     11 C17         -0.7270    -0.9670     0.0930 ca         1 2T2      -0.042200
     12 N7          -0.2160    -0.1830     1.1150 na         1 2T2      -0.104700
     13 C6          -0.9940     0.9950     1.1490 cd         1 2T2      -0.219100
     14 C8           0.9480    -0.5450     1.9460 c3         1 2T2       0.132900
     15 C9           2.2830    -0.5490     1.2010 ca         1 2T2      -0.106300
     16 C14          2.5510     0.3860     0.1770 ca         1 2T2      -0.065000
     17 C13          3.7840     0.3670    -0.5010 ca         1 2T2       0.015000
     18 C15          4.0460     1.3180    -1.5420 cg         1 2T2      -0.112000
     19 C16          4.2590     2.1260    -2.4250 c1         1 2T2      -0.246000
     20 C12          4.7590    -0.5850    -0.1530 ca         1 2T2      -0.088000
     21 C11          4.5010    -1.5130     0.8690 ca         1 2T2      -0.120000
     22 C10          3.2690    -1.4950     1.5440 ca         1 2T2      -0.080000
     23 H2          -3.0830     2.0110    -1.2540 hc         1 2T2       0.030200
     24 H3          -2.6340     2.9170     0.2680 hc         1 2T2       0.030200
     25 H4          -3.3240    -0.3900    -2.0340 ha         1 2T2       0.133000
     26 H5          -2.5960    -2.6460    -2.8580 ha         1 2T2       0.095000
     27 H6          -0.6680    -3.8120    -1.7800 ha         1 2T2       0.086000
     28 H7           0.5450    -2.7340     0.1260 ha         1 2T2       0.089000
     29 H8          -0.7950     1.7890     1.8620 h4         1 2T2       0.196000
     30 H9           1.0110     0.1660     2.7790 h1         1 2T2       0.055700
     31 H10          0.7630    -1.5370     2.3750 h1         1 2T2       0.055700
     32 H11          1.8030     1.1270    -0.0950 ha         1 2T2       0.123000
     33 H12          4.4400     2.8380    -3.2060 ha         1 2T2       0.252000
     34 H13          5.7150    -0.6050    -0.6720 ha         1 2T2       0.112000
     35 H14          5.2570    -2.2480     1.1380 ha         1 2T2       0.109000
     36 H15          3.0800    -2.2190     2.3340 ha         1 2T2       0.116000
@<TRIPOS>BOND
     1     1     2 1   
     2     2     3 1   
     3     2     4 1   
     4     4     5 1   
     5     4    23 1   
     6     4    24 1   
     7     5     6 1   
     8     5    13 2   
     9     6     7 ar  
    10     6    11 ar  
    11     7     8 ar  
    12     7    25 1   
    13     8     9 ar  
    14     8    26 1   
    15     9    10 ar  
    16     9    27 1   
    17    10    11 ar  
    18    10    28 1   
    19    11    12 1   
    20    12    13 1   
    21    12    14 1   
    22    13    29 1   
    23    14    15 1   
    24    14    30 1   
    25    14    31 1   
    26    15    16 ar  
    27    15    22 ar  
    28    16    17 ar  
    29    16    32 1   
    30    17    18 1   
    31    17    20 ar  
    32    18    19 3   
    33    19    33 1   
    34    20    21 ar  
    35    20    34 1   
    36    21    22 ar  
    37    21    35 1   
    38    22    36 1   
@<TRIPOS>SUBSTRUCTURE
     1 2T2         1 TEMP              0 ****  ****    0 ROOT
