@<TRIPOS>MOLECULE
2T3
   26    26     1     0     0
SMALL
bcc


@<TRIPOS>ATOM
      1 O4          -0.4920     0.1560     2.6500 o          1 2T3      -0.811800
      2 C4          -1.2740     0.2270     1.6810 c          1 2T3       0.947600
      3 O41         -2.3860     0.7720     1.6390 o          1 2T3      -0.811800
      4 C3          -0.7510    -0.4470     0.3900 c3         1 2T3      -0.037900
      5 O3          -1.6810    -0.2910    -0.6560 oh         1 2T3      -0.565800
      6 C2          -0.5000    -1.9380     0.6710 c3         1 2T3       0.065100
      7 O2          -1.6490    -2.5780     1.1390 oh         1 2T3      -0.564800
      8 C1           0.0130    -2.6270    -0.5950 c          1 2T3       0.623100
      9 O11         -0.7110    -3.3130    -1.2920 o          1 2T3      -0.597100
     10 N1           1.3130    -2.3550    -0.8710 ns         1 2T3      -0.479100
     11 C16          2.0930    -2.7420    -1.9660 ca         1 2T3       0.091600
     12 C17          3.4420    -2.3780    -1.9360 ca         1 2T3      -0.177500
     13 C18          4.2890    -2.7120    -2.9790 ca         1 2T3      -0.105500
     14 C19          3.8080    -3.4180    -4.0740 ca         1 2T3      -0.176000
     15 C20          2.4690    -3.7770    -4.1060 ca         1 2T3      -0.105500
     16 C21          1.6070    -3.4490    -3.0670 ca         1 2T3      -0.177500
     17 H3           0.2080     0.0270     0.1390 h1         1 2T3       0.015700
     18 HO3         -1.2270    -0.4050    -1.4970 ho         1 2T3       0.361000
     19 H2           0.2570    -2.0150     1.4570 h1         1 2T3       0.098700
     20 HO2         -2.3630    -2.4090     0.5140 ho         1 2T3       0.423000
     21 HN1          1.8110    -1.8230    -0.1720 hn         1 2T3       0.324500
     22 H17          3.8310    -1.8290    -1.0860 ha         1 2T3       0.147500
     23 H18          5.3290    -2.4190    -2.9310 ha         1 2T3       0.121000
     24 H19          4.4680    -3.6830    -4.8890 ha         1 2T3       0.120000
     25 H20          2.0760    -4.3240    -4.9530 ha         1 2T3       0.121000
     26 H21          0.5730    -3.7440    -3.1240 ha         1 2T3       0.147500
@<TRIPOS>BOND
     1     1     2 1   
     2     2     3 1   
     3     2     4 1   
     4     4     5 1   
     5     4     6 1   
     6     4    17 1   
     7     5    18 1   
     8     6     7 1   
     9     6     8 1   
    10     6    19 1   
    11     7    20 1   
    12     8     9 2   
    13     8    10 1   
    14    10    11 1   
    15    10    21 1   
    16    11    12 ar  
    17    11    16 ar  
    18    12    13 ar  
    19    12    22 1   
    20    13    14 ar  
    21    13    23 1   
    22    14    15 ar  
    23    14    24 1   
    24    15    16 ar  
    25    15    25 1   
    26    16    26 1   
@<TRIPOS>SUBSTRUCTURE
     1 2T3         1 TEMP              0 ****  ****    0 ROOT
