@<TRIPOS>MOLECULE
2T3
   26    26     1     0     0
SMALL
No Charge or Current Charge


@<TRIPOS>ATOM
      1 O4          -0.1010     0.6050     2.2430 o          1 2T3      -0.706500
      2 C4          -1.1150     0.4400     1.5770 c          1 2T3       0.737000
      3 O41         -2.1910     0.9630     1.8420 o          1 2T3      -0.706500
      4 C3          -1.0180    -0.4140     0.2650 c3         1 2T3      -0.014700
      5 O3          -2.2620    -0.4400    -0.4880 oh         1 2T3      -0.628000
      6 C2          -0.5250    -1.8600     0.5530 c3         1 2T3       0.088300
      7 O2          -1.5830    -2.6100     1.2030 oh         1 2T3      -0.627000
      8 C1          -0.0100    -2.5560    -0.7460 c          1 2T3       0.556100
      9 O11         -0.7370    -3.2520    -1.4520 o          1 2T3      -0.597100
     10 N1           1.3490    -2.3710    -0.9780 ns         1 2T3      -0.153000
     11 C16          2.2110    -2.8100    -2.0210 ca         1 2T3      -0.001000
     12 C17          3.5930    -2.5900    -1.8590 ca         1 2T3      -0.159500
     13 C18          4.5050    -2.9930    -2.8500 ca         1 2T3      -0.087500
     14 C19          4.0400    -3.6160    -4.0190 ca         1 2T3      -0.158000
     15 C20          2.6640    -3.8340    -4.1950 ca         1 2T3      -0.087500
     16 C21          1.7520    -3.4320    -3.2040 ca         1 2T3      -0.159500
     17 H3          -0.2490     0.0780    -0.3470 h1         1 2T3       0.015700
     18 HO3         -2.8700     0.1740    -0.0120 ho         1 2T3       0.400000
     19 H2           0.3420    -1.7960     1.2260 h1         1 2T3       0.098700
     20 HO2         -2.3360    -2.6040     0.5690 ho         1 2T3       0.462000
     21 HN1          1.8160    -1.8060    -0.2800 hn         1 2T3       0.158000
     22 H17          3.9660    -2.1080    -0.9580 ha         1 2T3       0.129500
     23 H18          5.5700    -2.8200    -2.7130 ha         1 2T3       0.103000
     24 H19          4.7440    -3.9270    -4.7870 ha         1 2T3       0.102000
     25 H20          2.3030    -4.3120    -5.1030 ha         1 2T3       0.103000
     26 H21          0.6950    -3.6040    -3.3780 ha         1 2T3       0.129500
@<TRIPOS>BOND
     1     1     2 1   
     2     2     3 1   
     3     2     4 1   
     4     4     5 1   
     5     4     6 1   
     6     4    17 1   
     7     5    18 1   
     8     6     7 1   
     9     6     8 1   
    10     6    19 1   
    11     7    20 1   
    12     8     9 2   
    13     8    10 1   
    14    10    11 1   
    15    10    21 1   
    16    11    12 ar  
    17    11    16 ar  
    18    12    13 ar  
    19    12    22 1   
    20    13    14 ar  
    21    13    23 1   
    22    14    15 ar  
    23    14    24 1   
    24    15    16 ar  
    25    15    25 1   
    26    16    26 1   
@<TRIPOS>SUBSTRUCTURE
     1 2T3         1 TEMP              0 ****  ****    0 ROOT
