@<TRIPOS>MOLECULE
2T4
   28    30     1     0     0
SMALL
bcc


@<TRIPOS>ATOM
      1 C1          -0.6620     0.6920     0.2690 ca         1 2T4       0.255100
      2 C2          -1.5250     1.7900     0.2180 ca         1 2T4      -0.189000
      3 C3          -1.0220     3.0750     0.0450 ca         1 2T4      -0.098000
      4 C4           0.3420     3.3150    -0.0950 ca         1 2T4      -0.222000
      5 C5           1.1970     2.2290    -0.0650 ca         1 2T4      -0.064300
      6 C6           0.7060     0.9280     0.1190 ca         1 2T4      -0.244500
      7 C7           2.7070     2.2170    -0.1870 c5         1 2T4       0.068200
      8 C8           2.9830     0.7600    -0.0490 cc         1 2T4      -0.238700
      9 C9           1.8530     0.0280     0.1230 cd         1 2T4       0.513800
     10 S10          4.3500    -0.2820    -0.0560 ss         1 2T4      -0.352300
     11 C11          3.2480    -1.6380     0.1760 cc         1 2T4       0.685300
     12 N12          1.9920    -1.3250     0.2500 nd         1 2T4      -0.631000
     13 N13          3.7410    -2.8920     0.3290 nv         1 2T4      -0.938500
     14 O14         -1.0480    -0.5750     0.4570 os         1 2T4      -0.261900
     15 C15         -2.3090    -0.8520     1.0880 c3         1 2T4      -0.013800
     16 P16         -3.7790    -1.1120    -0.0410 p5         1 2T4       1.118700
     17 O17         -3.3050    -2.1280    -1.0820 o          1 2T4      -0.917833
     18 O18         -4.8160    -1.6510     0.9520 o          1 2T4      -0.917833
     19 O19         -4.1450     0.2580    -0.6280 o          1 2T4      -0.917833
     20 H2          -2.5950     1.6240     0.2560 ha         1 2T4       0.226000
     21 H3          -1.7170     3.9040     0.0060 ha         1 2T4       0.108000
     22 H4           0.7180     4.3220    -0.2300 ha         1 2T4       0.096000
     23 H7           3.0380     2.6290    -1.1450 hc         1 2T4       0.041200
     24 H7A          3.1770     2.8180     0.5960 hc         1 2T4       0.041200
     25 HN13         4.6360    -3.1030    -0.0800 hn         1 2T4       0.406300
     26 HN1A         3.0670    -3.6340     0.2250 hn         1 2T4       0.406300
     27 H15         -2.1330    -1.7810     1.6380 h1         1 2T4       0.020700
     28 H15A        -2.5150    -0.0800     1.8410 h1         1 2T4       0.020700
@<TRIPOS>BOND
     1     1     2 ar  
     2     1     6 ar  
     3     1    14 1   
     4     2     3 ar  
     5     2    20 1   
     6     3     4 ar  
     7     3    21 1   
     8     4     5 ar  
     9     4    22 1   
    10     5     6 ar  
    11     5     7 1   
    12     6     9 1   
    13     7     8 1   
    14     7    23 1   
    15     7    24 1   
    16     8     9 2   
    17     8    10 1   
    18     9    12 1   
    19    10    11 1   
    20    11    12 2   
    21    11    13 1   
    22    13    25 1   
    23    13    26 1   
    24    14    15 1   
    25    15    16 1   
    26    15    27 1   
    27    15    28 1   
    28    16    17 1   
    29    16    18 1   
    30    16    19 1   
@<TRIPOS>SUBSTRUCTURE
     1 2T4         1 TEMP              0 ****  ****    0 ROOT
