@<TRIPOS>MOLECULE
2T4
   28    30     1     0     0
SMALL
No Charge or Current Charge


@<TRIPOS>ATOM
      1 C1          -0.6270     0.7250     0.6210 ca         1 2T4       0.255100
      2 C2          -1.4920     1.8440     0.6150 ca         1 2T4      -0.171000
      3 C3          -1.0150     3.1190     0.2350 ca         1 2T4      -0.080000
      4 C4           0.3320     3.2990    -0.1370 ca         1 2T4      -0.204000
      5 C5           1.1980     2.1960    -0.1230 ca         1 2T4      -0.064300
      6 C6           0.7080     0.9430     0.2560 ca         1 2T4      -0.244500
      7 C7           2.7040     2.2020    -0.4870 c5         1 2T4       0.068200
      8 C8           2.9170     0.7190    -0.2240 cc         1 2T4      -0.318300
      9 C9           1.8190     0.0420     0.1820 cd         1 2T4       0.448500
     10 S10          4.3010    -0.3170    -0.3230 ss         1 2T4      -0.207400
     11 C11          3.2150    -1.5920     0.2150 cc         1 2T4       0.685300
     12 N12          1.9560    -1.3040     0.4460 nd         1 2T4      -0.631000
     13 N13          3.6220    -2.8550     0.3880 nv         1 2T4      -1.048900
     14 O14         -1.0290    -0.5420     1.0070 os         1 2T4      -0.285100
     15 C15         -2.4120    -0.9070     1.2510 c3         1 2T4      -0.148400
     16 P16         -3.4650    -1.1030    -0.2930 p5         1 2T4       1.276500
     17 O17         -2.6370    -1.6500    -1.4090 o          1 2T4      -0.917833
     18 O18         -4.5770    -2.0510     0.0120 o          1 2T4      -0.917833
     19 O19         -4.0360     0.2200    -0.6820 o          1 2T4      -0.917833
     20 H2          -2.5330     1.7410     0.9040 ha         1 2T4       0.208000
     21 H3          -1.6920     3.9700     0.2320 ha         1 2T4       0.090000
     22 H4           0.6970     4.2810    -0.4270 ha         1 2T4       0.078000
     23 H7           2.8950     2.4780    -1.5300 hc         1 2T4       0.041200
     24 H7A          3.3050     2.8390     0.1720 hc         1 2T4       0.041200
     25 HN13         4.4780    -3.1260    -0.0810 hn         1 2T4       0.461500
     26 HN1A         2.8880    -3.5510     0.4400 hn         1 2T4       0.461500
     27 H15         -2.4400    -1.8880     1.7410 h1         1 2T4       0.020700
     28 H15A        -2.8970    -0.1960     1.9310 h1         1 2T4       0.020700
@<TRIPOS>BOND
     1     1     2 ar  
     2     1     6 ar  
     3     1    14 1   
     4     2     3 ar  
     5     2    20 1   
     6     3     4 ar  
     7     3    21 1   
     8     4     5 ar  
     9     4    22 1   
    10     5     6 ar  
    11     5     7 1   
    12     6     9 1   
    13     7     8 1   
    14     7    23 1   
    15     7    24 1   
    16     8     9 2   
    17     8    10 1   
    18     9    12 1   
    19    10    11 1   
    20    11    12 2   
    21    11    13 1   
    22    13    25 1   
    23    13    26 1   
    24    14    15 1   
    25    15    16 1   
    26    15    27 1   
    27    15    28 1   
    28    16    17 1   
    29    16    18 1   
    30    16    19 1   
@<TRIPOS>SUBSTRUCTURE
     1 2T4         1 TEMP              0 ****  ****    0 ROOT
