@<TRIPOS>MOLECULE
2T5
   26    28     1     0     0
SMALL
abcg2


@<TRIPOS>ATOM
      1 P1          -3.6970    -0.8800    -0.0740 p5         1 2T5       1.276500
      2 O2          -3.3220    -1.9530    -1.0990 o          1 2T5      -0.917167
      3 O3          -3.9000     0.5150    -0.6780 o          1 2T5      -0.917167
      4 O4          -4.7980    -1.2940     0.9090 o          1 2T5      -0.917167
      5 C5          -2.2210    -0.7670     1.0710 c3         1 2T5      -0.147400
      6 O6          -0.9330    -0.6290     0.4460 os         1 2T5      -0.283100
      7 C7          -0.4150     0.5860     0.2510 ca         1 2T5       0.256100
      8 C8           0.9690     0.6690     0.0860 ca         1 2T5      -0.242500
      9 C9           1.6020     1.9040    -0.1080 ca         1 2T5      -0.065300
     10 C10          0.8740     3.0790    -0.1360 ca         1 2T5      -0.203000
     11 C11         -0.5060     2.9930     0.0200 ca         1 2T5      -0.080000
     12 C12         -1.1500     1.7740     0.2040 ca         1 2T5      -0.169000
     13 C13          3.1000     1.7240    -0.2430 c5         1 2T5       0.063200
     14 C14          3.2200     0.2450    -0.1040 cc         1 2T5      -0.306300
     15 C15          2.0070    -0.3540     0.0830 cd         1 2T5       0.409500
     16 S16          4.4450    -0.9350    -0.1100 ss         1 2T5      -0.148400
     17 C17          3.2290    -2.1440     0.1390 cc         1 2T5       0.411300
     18 N18          2.0130    -1.7070     0.2200 nd         1 2T5      -0.552000
     19 H5          -2.3530     0.0310     1.8130 h1         1 2T5       0.020700
     20 H5A         -2.1460    -1.7030     1.6320 h1         1 2T5       0.020700
     21 H10          1.3580     4.0370    -0.2820 ha         1 2T5       0.078000
     22 H11         -1.1050     3.8950    -0.0150 ha         1 2T5       0.090000
     23 H12         -2.2300     1.7310     0.2530 ha         1 2T5       0.206000
     24 H13          3.4700     2.0900    -1.2050 hc         1 2T5       0.044200
     25 H13A         3.6450     2.2660     0.5340 hc         1 2T5       0.044200
     26 H17          3.5060    -3.1860     0.2150 h5         1 2T5       0.031100
@<TRIPOS>BOND
     1     1     2 1   
     2     1     3 1   
     3     1     4 1   
     4     1     5 1   
     5     5     6 1   
     6     5    19 1   
     7     5    20 1   
     8     6     7 1   
     9     7     8 ar  
    10     7    12 ar  
    11     8     9 ar  
    12     8    15 1   
    13     9    10 ar  
    14     9    13 1   
    15    10    11 ar  
    16    10    21 1   
    17    11    12 ar  
    18    11    22 1   
    19    12    23 1   
    20    13    14 1   
    21    13    24 1   
    22    13    25 1   
    23    14    15 2   
    24    14    16 1   
    25    15    18 1   
    26    16    17 1   
    27    17    18 2   
    28    17    26 1   
@<TRIPOS>SUBSTRUCTURE
     1 2T5         1 TEMP              0 ****  ****    0 ROOT
