@<TRIPOS>MOLECULE
2T5
   26    28     1     0     0
SMALL
No Charge or Current Charge


@<TRIPOS>ATOM
      1 P1          -3.4130    -0.8850    -0.2920 p5         1 2T5       1.276500
      2 O2          -2.6590    -1.5650    -1.3870 o          1 2T5      -0.917167
      3 O3          -3.8100     0.4880    -0.7210 o          1 2T5      -0.917167
      4 O4          -4.6370    -1.6740     0.0350 o          1 2T5      -0.917167
      5 C5          -2.3450    -0.7800     1.2510 c3         1 2T5      -0.147400
      6 O6          -0.9300    -0.5780     1.0020 os         1 2T5      -0.283100
      7 C7          -0.3890     0.6300     0.5970 ca         1 2T5       0.256100
      8 C8           0.9610     0.6880     0.2240 ca         1 2T5      -0.242500
      9 C9           1.5910     1.8700    -0.1740 ca         1 2T5      -0.065300
     10 C10          0.8570     3.0650    -0.2010 ca         1 2T5      -0.203000
     11 C11         -0.5000     3.0470     0.1780 ca         1 2T5      -0.080000
     12 C12         -1.1200     1.8410     0.5770 ca         1 2T5      -0.169000
     13 C13          3.0850     1.6960    -0.5410 c5         1 2T5       0.063200
     14 C14          3.1260     0.2010    -0.2580 cc         1 2T5      -0.306300
     15 C15          1.9600    -0.3350     0.1580 cd         1 2T5       0.409500
     16 S16          4.3820    -0.9850    -0.3460 ss         1 2T5      -0.148400
     17 C17          3.1720    -2.1490     0.2100 cc         1 2T5       0.411300
     18 N18          1.9430    -1.6840     0.4410 nd         1 2T5      -0.552000
     19 H5          -2.7460    -0.0070     1.9170 h1         1 2T5       0.020700
     20 H5A         -2.4830    -1.7430     1.7580 h1         1 2T5       0.020700
     21 H10          1.3310     3.9950    -0.5050 ha         1 2T5       0.078000
     22 H11         -1.0750     3.9700     0.1650 ha         1 2T5       0.090000
     23 H12         -2.1640     1.8620     0.8700 ha         1 2T5       0.206000
     24 H13          3.3020     1.9340    -1.5890 hc         1 2T5       0.044200
     25 H13A         3.7590     2.2670     0.1070 hc         1 2T5       0.044200
     26 H17          3.4650    -3.1830     0.3450 h5         1 2T5       0.031100
@<TRIPOS>BOND
     1     1     2 1   
     2     1     3 1   
     3     1     4 1   
     4     1     5 1   
     5     5     6 1   
     6     5    19 1   
     7     5    20 1   
     8     6     7 1   
     9     7     8 ar  
    10     7    12 ar  
    11     8     9 ar  
    12     8    15 1   
    13     9    10 ar  
    14     9    13 1   
    15    10    11 ar  
    16    10    21 1   
    17    11    12 ar  
    18    11    22 1   
    19    12    23 1   
    20    13    14 1   
    21    13    24 1   
    22    13    25 1   
    23    14    15 2   
    24    14    16 1   
    25    15    18 1   
    26    16    17 1   
    27    17    18 2   
    28    17    26 1   
@<TRIPOS>SUBSTRUCTURE
     1 2T5         1 TEMP              0 ****  ****    0 ROOT
