@<TRIPOS>MOLECULE
2T6
   30    32     1     0     0
SMALL
bcc


@<TRIPOS>ATOM
      1 C1          -1.5540     0.9810     0.0430 ca         1 2T6       0.011700
      2 C2          -0.6880    -0.1020    -0.1490 ca         1 2T6      -0.255500
      3 C3           0.6860     0.0790    -0.3290 ca         1 2T6       0.280100
      4 C4           1.1810     1.3870    -0.2790 ca         1 2T6      -0.200000
      5 C5           0.3130     2.4530    -0.1190 ca         1 2T6      -0.071000
      6 C6          -1.0690     2.2860     0.0270 ca         1 2T6      -0.261600
      7 C7          -2.9810     0.4900     0.1960 c5         1 2T6       0.058200
      8 C8          -2.7970    -0.9790     0.0490 cc         1 2T6      -0.216700
      9 C9          -1.4900    -1.3180    -0.1410 cd         1 2T6       0.459800
     10 S10         -3.7530    -2.3860     0.0810 ss         1 2T6      -0.282300
     11 C11         -2.3140    -3.3220    -0.1690 cc         1 2T6       0.408300
     12 N12         -1.2150    -2.6440    -0.2650 nd         1 2T6      -0.550000
     13 O13          1.4140    -1.0100    -0.5400 os         1 2T6      -0.240900
     14 C14          2.7430    -0.9020    -1.0830 c3         1 2T6      -0.008800
     15 O15          3.9900     0.5280     0.8780 o          1 2T6      -0.914167
     16 C16         -1.9870     3.4420     0.2030 c          1 2T6       0.704700
     17 N17         -1.5660     4.6160    -0.3020 nt         1 2T6      -0.684000
     18 O18         -3.0620     3.3310     0.7810 o          1 2T6      -0.663100
     19 P19          4.1250    -0.8270     0.1750 p5         1 2T6       1.113700
     20 O20          3.8960    -2.0320     1.0880 o          1 2T6      -0.914167
     21 O21          5.3560    -0.9400    -0.7310 o          1 2T6      -0.914167
     22 H4           2.2480     1.5540    -0.3010 ha         1 2T6       0.220000
     23 H5           0.7440     3.4460    -0.0710 ha         1 2T6       0.107000
     24 H7          -3.4000     0.7630     1.1650 hc         1 2T6       0.067700
     25 H7A         -3.6430     0.9150    -0.5620 hc         1 2T6       0.067700
     26 H11         -2.3710    -4.3990    -0.2350 h5         1 2T6       0.032100
     27 H14          2.8550    -1.8060    -1.6880 h1         1 2T6       0.024200
     28 H14A         2.7870    -0.0530    -1.7750 h1         1 2T6       0.024200
     29 HN17        -0.7650     4.6890    -0.9040 hn         1 2T6       0.297500
     30 HN1A        -2.1490     5.4320    -0.2140 hn         1 2T6       0.297500
@<TRIPOS>BOND
     1     1     2 ar  
     2     1     6 ar  
     3     1     7 1   
     4     2     3 ar  
     5     2     9 1   
     6     3     4 ar  
     7     3    13 1   
     8     4     5 ar  
     9     4    22 1   
    10     5     6 ar  
    11     5    23 1   
    12     6    16 1   
    13     7     8 1   
    14     7    24 1   
    15     7    25 1   
    16     8     9 2   
    17     8    10 1   
    18     9    12 1   
    19    10    11 1   
    20    11    12 2   
    21    11    26 1   
    22    13    14 1   
    23    14    19 1   
    24    14    27 1   
    25    14    28 1   
    26    15    19 1   
    27    16    17 1   
    28    16    18 2   
    29    17    29 1   
    30    17    30 1   
    31    19    20 1   
    32    19    21 1   
@<TRIPOS>SUBSTRUCTURE
     1 2T6         1 TEMP              0 ****  ****    0 ROOT
