@<TRIPOS>MOLECULE
2T6
   30    32     1     0     0
SMALL
No Charge or Current Charge


@<TRIPOS>ATOM
      1 C1          -1.5700     0.9390    -0.0370 ca         1 2T6       0.011700
      2 C2          -0.7000    -0.1200    -0.3340 ca         1 2T6      -0.255500
      3 C3           0.6390     0.0620    -0.6930 ca         1 2T6       0.280100
      4 C4           1.1100     1.3870    -0.7710 ca         1 2T6      -0.182000
      5 C5           0.2590     2.4730    -0.4770 ca         1 2T6      -0.053000
      6 C6          -1.0980     2.2740    -0.1030 ca         1 2T6      -0.261600
      7 C7          -3.0020     0.4520     0.3330 c5         1 2T6       0.058200
      8 C8          -2.7160    -1.0300     0.1700 cc         1 2T6      -0.296300
      9 C9          -1.4550    -1.3270    -0.1950 cd         1 2T6       0.394500
     10 S10         -3.6880    -2.4510     0.3420 ss         1 2T6      -0.137400
     11 C11         -2.2430    -3.3610    -0.1130 cc         1 2T6       0.408300
     12 N12         -1.1390    -2.6560    -0.3720 nd         1 2T6      -0.550000
     13 O13          1.4190    -1.0410    -0.9930 os         1 2T6      -0.264100
     14 C14          2.8520    -0.9770    -1.2120 c3         1 2T6      -0.143400
     15 O15          4.0010     0.7210     0.6380 o          1 2T6      -0.914167
     16 C16         -1.9980     3.4560     0.2090 c          1 2T6       0.637700
     17 N17         -1.4680     4.6920     0.1210 nt         1 2T6      -0.617000
     18 O18         -3.1680     3.3520     0.5320 o          1 2T6      -0.663100
     19 P19          3.8690    -0.7370     0.3460 p5         1 2T6       1.271500
     20 O20          3.2130    -1.4310     1.4940 o          1 2T6      -0.914167
     21 O21          5.2240    -1.3200     0.1190 o          1 2T6      -0.914167
     22 H4           2.1350     1.5920    -1.0610 ha         1 2T6       0.202000
     23 H5           0.6770     3.4730    -0.5510 ha         1 2T6       0.089000
     24 H7          -3.2940     0.7100     1.3570 hc         1 2T6       0.067700
     25 H7A         -3.7720     0.8060    -0.3620 hc         1 2T6       0.067700
     26 H11         -2.3010    -4.4400    -0.1690 h5         1 2T6       0.032100
     27 H14          3.1920    -1.9310    -1.6320 h1         1 2T6       0.024200
     28 H14A         3.1100    -0.1970    -1.9380 h1         1 2T6       0.024200
     29 HN17        -0.5030     4.8100    -0.1430 hn         1 2T6       0.297500
     30 HN1A        -2.0490     5.4910     0.3250 hn         1 2T6       0.297500
@<TRIPOS>BOND
     1     1     2 ar  
     2     1     6 ar  
     3     1     7 1   
     4     2     3 ar  
     5     2     9 1   
     6     3     4 ar  
     7     3    13 1   
     8     4     5 ar  
     9     4    22 1   
    10     5     6 ar  
    11     5    23 1   
    12     6    16 1   
    13     7     8 1   
    14     7    24 1   
    15     7    25 1   
    16     8     9 2   
    17     8    10 1   
    18     9    12 1   
    19    10    11 1   
    20    11    12 2   
    21    11    26 1   
    22    13    14 1   
    23    14    19 1   
    24    14    27 1   
    25    14    28 1   
    26    15    19 1   
    27    16    17 1   
    28    16    18 2   
    29    17    29 1   
    30    17    30 1   
    31    19    20 1   
    32    19    21 1   
@<TRIPOS>SUBSTRUCTURE
     1 2T6         1 TEMP              0 ****  ****    0 ROOT
