@<TRIPOS>MOLECULE
2T7
   40    42     1     0     0
SMALL
bcc


@<TRIPOS>ATOM
      1 O25         -4.8350    -2.0090    -1.0830 o          1 2T7      -0.226500
      2 N23         -4.9530    -1.1080    -0.2820 no         1 2T7       0.325200
      3 O24         -5.9180    -0.9760     0.4370 o          1 2T7      -0.226500
      4 C20         -3.8870    -0.1410    -0.1770 ca         1 2T7      -0.235200
      5 C21         -3.9910     0.8970     0.7330 ca         1 2T7      -0.017000
      6 C18         -2.9710     1.8250     0.8250 ca         1 2T7      -0.249000
      7 C16         -1.8450     1.7130     0.0080 ca         1 2T7       0.218100
      8 O19         -0.8350     2.5760     0.0160 os         1 2T7      -0.287900
      9 C22         -0.8390     3.6540     0.9380 c3         1 2T7       0.122700
     10 C17         -2.7640    -0.2670    -0.9910 ca         1 2T7      -0.016000
     11 C15         -1.7330     0.6440    -0.9020 ca         1 2T7      -0.151300
     12 C3          -0.5010     0.4950    -1.7590 c3         1 2T7       0.119600
     13 N2           0.6850     0.1820    -0.9960 na         1 2T7      -0.078400
     14 C10          0.9400    -1.0060    -0.3660 ca         1 2T7      -0.046200
     15 C5           0.2140    -2.1960    -0.3430 ca         1 2T7      -0.170000
     16 C4           0.7330    -3.2510     0.3860 ca         1 2T7      -0.121000
     17 C9           2.1700    -0.8710     0.3170 ca         1 2T7      -0.073800
     18 C6           2.6720    -1.9550     1.0410 ca         1 2T7      -0.039000
     19 C1           1.9490    -3.1320     1.0780 ca         1 2T7      -0.190000
     20 C8           2.6520     0.4560     0.0730 cc         1 2T7      -0.027400
     21 C7           1.7150     1.0500    -0.7170 cd         1 2T7      -0.154100
     22 C11          3.9020     1.0570     0.6090 c3         1 2T7      -0.163200
     23 C12          5.2210     0.4650     0.0610 c          1 2T7       0.930600
     24 O13          6.2610     0.8700     0.6210 o          1 2T7      -0.834300
     25 O14          5.1500    -0.3400    -0.8840 o          1 2T7      -0.834300
     26 H1          -4.8560     0.9990     1.3720 ha         1 2T7       0.160000
     27 H2          -3.0710     2.6310     1.5370 ha         1 2T7       0.145000
     28 H3          -1.6830     4.3260     0.7680 h1         1 2T7       0.048700
     29 H4          -0.8620     3.2980     1.9690 h1         1 2T7       0.048700
     30 H5           0.0860     4.1990     0.7710 h1         1 2T7       0.048700
     31 H6          -2.6920    -1.0770    -1.7030 ha         1 2T7       0.169000
     32 H7          -0.6690    -0.2900    -2.4990 h1         1 2T7       0.059700
     33 H8          -0.3040     1.4100    -2.3180 h1         1 2T7       0.059700
     34 H9          -0.7220    -2.3110    -0.8750 ha         1 2T7       0.110000
     35 H10          0.1900    -4.1870     0.4210 ha         1 2T7       0.108000
     36 H11          3.6130    -1.8730     1.5730 ha         1 2T7       0.148000
     37 H12          2.3230    -3.9780     1.6400 ha         1 2T7       0.114000
     38 H13          1.6990     2.0530    -1.1150 h4         1 2T7       0.148000
     39 H14          3.9070     2.1330     0.4050 hc         1 2T7       0.027200
     40 H15          3.9210     0.9740     1.7020 hc         1 2T7       0.027200
@<TRIPOS>BOND
     1     1     2 1   
     2     2     3 1   
     3     2     4 1   
     4     4     5 ar  
     5     4    10 ar  
     6     5     6 ar  
     7     5    26 1   
     8     6     7 ar  
     9     6    27 1   
    10     7     8 1   
    11     7    11 ar  
    12     8     9 1   
    13     9    28 1   
    14     9    29 1   
    15     9    30 1   
    16    10    11 ar  
    17    10    31 1   
    18    11    12 1   
    19    12    13 1   
    20    12    32 1   
    21    12    33 1   
    22    13    14 1   
    23    13    21 1   
    24    14    15 ar  
    25    14    17 ar  
    26    15    16 ar  
    27    15    34 1   
    28    16    19 ar  
    29    16    35 1   
    30    17    18 ar  
    31    17    20 1   
    32    18    19 ar  
    33    18    36 1   
    34    19    37 1   
    35    20    21 2   
    36    20    22 1   
    37    21    38 1   
    38    22    23 1   
    39    22    39 1   
    40    22    40 1   
    41    23    24 1   
    42    23    25 1   
@<TRIPOS>SUBSTRUCTURE
     1 2T7         1 TEMP              0 ****  ****    0 ROOT
