@<TRIPOS>MOLECULE
2T7
   40    42     1     0     0
SMALL
No Charge or Current Charge


@<TRIPOS>ATOM
      1 O25         -4.4160    -2.3090     0.3400 o          1 2T7      -0.416500
      2 N23         -4.6570    -1.1750     0.7730 no         1 2T7       0.705200
      3 O24         -5.6300    -0.9100     1.4910 o          1 2T7      -0.416500
      4 C20         -3.7240    -0.0630     0.4060 ca         1 2T7      -0.235200
      5 C21         -3.9600     1.2490     0.8680 ca         1 2T7       0.001000
      6 C18         -3.0810     2.2880     0.5240 ca         1 2T7      -0.231000
      7 C16         -1.9530     2.0340    -0.2850 ca         1 2T7       0.218100
      8 O19         -1.0680     3.0360    -0.6380 os         1 2T7      -0.311100
      9 C22         -1.2190     4.3940    -0.1900 c3         1 2T7       0.145900
     10 C17         -2.5950    -0.3160    -0.4040 ca         1 2T7       0.002000
     11 C15         -1.7130     0.7250    -0.7530 ca         1 2T7      -0.151300
     12 C3          -0.4960     0.4150    -1.6210 c3         1 2T7       0.148900
     13 N2           0.6930     0.0570    -0.8270 na         1 2T7      -0.107700
     14 C10          1.0830    -1.2380    -0.5130 ca         1 2T7      -0.046200
     15 C5           0.5040    -2.4580    -0.9050 ca         1 2T7      -0.152000
     16 C4           1.0930    -3.6550    -0.4480 ca         1 2T7      -0.103000
     17 C9           2.1930    -1.2070     0.2890 ca         1 2T7      -0.073800
     18 C6           2.8020    -2.3810     0.7580 ca         1 2T7      -0.021000
     19 C1           2.2370    -3.6170     0.3810 ca         1 2T7      -0.172000
     20 C8           2.5470     0.1700     0.5110 cc         1 2T7      -0.027400
     21 C7           1.6050     0.9220    -0.1830 cd         1 2T7      -0.204100
     22 C11          3.6890     0.6900     1.3470 c3         1 2T7      -0.163200
     23 C12          5.0270     0.6570     0.5880 c          1 2T7       0.720000
     24 O13          5.6970    -0.3640     0.6410 o          1 2T7      -0.729000
     25 O14          5.3100     1.6120    -0.1210 o          1 2T7      -0.729000
     26 H1          -4.8230     1.4750     1.4940 ha         1 2T7       0.142000
     27 H2          -3.2930     3.2850     0.8970 ha         1 2T7       0.127000
     28 H3          -2.1690     4.8170    -0.5420 h1         1 2T7       0.048700
     29 H4          -1.1910     4.4490     0.9050 h1         1 2T7       0.048700
     30 H5          -0.4050     5.0150    -0.5830 h1         1 2T7       0.048700
     31 H6          -2.3930    -1.3230    -0.7660 ha         1 2T7       0.151000
     32 H7          -0.7320    -0.4030    -2.3120 h1         1 2T7       0.059700
     33 H8          -0.2470     1.2850    -2.2410 h1         1 2T7       0.059700
     34 H9          -0.3730    -2.4910    -1.5450 ha         1 2T7       0.092000
     35 H10          0.6650    -4.6130    -0.7360 ha         1 2T7       0.090000
     36 H11          3.6840    -2.3400     1.3930 ha         1 2T7       0.130000
     37 H12          2.6860    -4.5450     0.7280 ha         1 2T7       0.096000
     38 H13          1.5150     2.0000    -0.2580 h4         1 2T7       0.198000
     39 H14          3.4340     1.7270     1.5970 hc         1 2T7       0.027200
     40 H15          3.7440     0.0430     2.2300 hc         1 2T7       0.027200
@<TRIPOS>BOND
     1     1     2 1   
     2     2     3 1   
     3     2     4 1   
     4     4     5 ar  
     5     4    10 ar  
     6     5     6 ar  
     7     5    26 1   
     8     6     7 ar  
     9     6    27 1   
    10     7     8 1   
    11     7    11 ar  
    12     8     9 1   
    13     9    28 1   
    14     9    29 1   
    15     9    30 1   
    16    10    11 ar  
    17    10    31 1   
    18    11    12 1   
    19    12    13 1   
    20    12    32 1   
    21    12    33 1   
    22    13    14 1   
    23    13    21 1   
    24    14    15 ar  
    25    14    17 ar  
    26    15    16 ar  
    27    15    34 1   
    28    16    19 ar  
    29    16    35 1   
    30    17    18 ar  
    31    17    20 1   
    32    18    19 ar  
    33    18    36 1   
    34    19    37 1   
    35    20    21 2   
    36    20    22 1   
    37    21    38 1   
    38    22    23 1   
    39    22    39 1   
    40    22    40 1   
    41    23    24 1   
    42    23    25 1   
@<TRIPOS>SUBSTRUCTURE
     1 2T7         1 TEMP              0 ****  ****    0 ROOT
