@<TRIPOS>MOLECULE
2T9
   54    57     1     0     0
SMALL
bcc


@<TRIPOS>ATOM
      1 O33         -2.1120    -3.7160     1.2380 o          1 2T9      -0.229500
      2 N31         -1.3070    -4.2420     0.4960 no         1 2T9       0.327200
      3 O32         -1.5500    -5.2260    -0.1630 o          1 2T9      -0.229500
      4 C6           0.0050    -3.6540     0.3930 ca         1 2T9      -0.235200
      5 C5           0.9150    -4.1560    -0.5230 ca         1 2T9      -0.015000
      6 C4           2.1590    -3.5660    -0.6360 ca         1 2T9      -0.248000
      7 C7           0.3350    -2.5710     1.2030 ca         1 2T9      -0.013000
      8 C8           1.5660    -1.9630     1.0920 ca         1 2T9      -0.154300
      9 C3           2.4940    -2.4700     0.1630 ca         1 2T9       0.220100
     10 O2           3.6680    -1.8500     0.1150 os         1 2T9      -0.289900
     11 C1           4.6470    -2.2680    -0.8230 c3         1 2T9       0.122700
     12 C9           1.8910    -0.7460     1.9230 c3         1 2T9       0.119600
     13 N10          1.9240     0.4640     1.1330 na         1 2T9      -0.077400
     14 C22          0.8460     1.0320     0.5110 ca         1 2T9      -0.053200
     15 C17          1.3190     2.1100    -0.2670 ca         1 2T9      -0.062800
     16 C12          2.7390     2.1740    -0.0960 cc         1 2T9      -0.025400
     17 C13          3.6720     3.1270    -0.7520 c3         1 2T9      -0.165200
     18 C14          3.4920     4.6160    -0.3700 c          1 2T9       0.930600
     19 O16          2.6880     4.8940     0.5360 o          1 2T9      -0.833800
     20 O15          4.1960     5.4180    -1.0180 o          1 2T9      -0.833800
     21 C11          3.0540     1.1490     0.7470 cd         1 2T9      -0.154100
     22 C21         -0.5030     0.7030     0.5740 ca         1 2T9      -0.149000
     23 C20         -1.4070     1.4410    -0.1790 cp         1 2T9      -0.040000
     24 C19         -0.9400     2.5190    -0.9610 ca         1 2T9      -0.170000
     25 C18          0.3970     2.8620    -1.0000 ca         1 2T9      -0.041000
     26 C23         -2.8420     1.0810    -0.1670 cp         1 2T9       0.061000
     27 C30         -3.8170     2.0710    -0.2490 ca         1 2T9      -0.227500
     28 C28         -5.1740     1.7280    -0.2370 ca         1 2T9       0.178100
     29 N29         -6.1400     2.7150    -0.2550 nv         1 2T9      -0.829200
     30 C27         -5.5410     0.3850    -0.1420 ca         1 2T9      -0.276000
     31 C25         -4.5700    -0.6160    -0.0640 ca         1 2T9       0.178100
     32 N26         -4.9370    -1.9450    -0.0440 nv         1 2T9      -0.829200
     33 C24         -3.2180    -0.2580    -0.0770 ca         1 2T9      -0.227500
     34 H1           0.6710    -4.9970    -1.1560 ha         1 2T9       0.160000
     35 H2           2.8580    -3.9730    -1.3520 ha         1 2T9       0.145000
     36 H3          -0.3730    -2.1940     1.9290 ha         1 2T9       0.170000
     37 H4           5.4960    -1.6040    -0.6890 h1         1 2T9       0.049033
     38 H5           4.9660    -3.2960    -0.6430 h1         1 2T9       0.049033
     39 H6           4.2820    -2.1770    -1.8490 h1         1 2T9       0.049033
     40 H7           1.1460    -0.6450     2.7140 h1         1 2T9       0.060200
     41 H8           2.8560    -0.8500     2.4180 h1         1 2T9       0.060200
     42 H9           4.7050     2.8430    -0.5250 hc         1 2T9       0.028200
     43 H10          3.5870     3.0460    -1.8410 hc         1 2T9       0.028200
     44 H12          4.0220     0.8450     1.1140 h4         1 2T9       0.148000
     45 H13         -0.8610    -0.0950     1.2100 ha         1 2T9       0.115000
     46 H14         -1.6470     3.0790    -1.5600 ha         1 2T9       0.118000
     47 H15          0.7250     3.6960    -1.6070 ha         1 2T9       0.152000
     48 H16         -3.5330     3.1160    -0.2960 ha         1 2T9       0.135500
     49 H17         -5.8580     3.5850    -0.6760 hn         1 2T9       0.387550
     50 H18         -7.0490     2.4260    -0.5800 hn         1 2T9       0.387550
     51 H19         -6.5930     0.1150    -0.1330 ha         1 2T9       0.117000
     52 H20         -5.8680    -2.1390     0.2890 hn         1 2T9       0.387550
     53 H21         -4.2620    -2.5810     0.3500 hn         1 2T9       0.387550
     54 H22         -2.4640    -1.0350    -0.0540 ha         1 2T9       0.135500
@<TRIPOS>BOND
     1     1     2 1   
     2     2     3 1   
     3     2     4 1   
     4     4     5 ar  
     5     4     7 ar  
     6     5     6 ar  
     7     5    34 1   
     8     6     9 ar  
     9     6    35 1   
    10     7     8 ar  
    11     7    36 1   
    12     8     9 ar  
    13     8    12 1   
    14     9    10 1   
    15    10    11 1   
    16    11    37 1   
    17    11    38 1   
    18    11    39 1   
    19    12    13 1   
    20    12    40 1   
    21    12    41 1   
    22    13    14 1   
    23    13    21 1   
    24    14    15 ar  
    25    14    22 ar  
    26    15    16 1   
    27    15    25 ar  
    28    16    17 1   
    29    16    21 2   
    30    17    18 1   
    31    17    42 1   
    32    17    43 1   
    33    18    19 1   
    34    18    20 1   
    35    21    44 1   
    36    22    23 ar  
    37    22    45 1   
    38    23    24 ar  
    39    23    26 1   
    40    24    25 ar  
    41    24    46 1   
    42    25    47 1   
    43    26    27 ar  
    44    26    33 ar  
    45    27    28 ar  
    46    27    48 1   
    47    28    29 1   
    48    28    30 ar  
    49    29    49 1   
    50    29    50 1   
    51    30    31 ar  
    52    30    51 1   
    53    31    32 1   
    54    31    33 ar  
    55    32    52 1   
    56    32    53 1   
    57    33    54 1   
@<TRIPOS>SUBSTRUCTURE
     1 2T9         1 TEMP              0 ****  ****    0 ROOT
