@<TRIPOS>MOLECULE
2T9
   54    57     1     0     0
SMALL
No Charge or Current Charge


@<TRIPOS>ATOM
      1 O33         -2.3030    -3.6770     1.0060 o          1 2T9      -0.419500
      2 N31         -1.4060    -4.3090     0.4330 no         1 2T9       0.707200
      3 O32         -1.5880    -5.3950    -0.1320 o          1 2T9      -0.419500
      4 C6          -0.0420    -3.6980     0.3650 ca         1 2T9      -0.235200
      5 C5           0.9350    -4.2260    -0.5050 ca         1 2T9       0.003000
      6 C4           2.2080    -3.6380    -0.5780 ca         1 2T9      -0.230000
      7 C7           0.2790    -2.5800     1.1650 ca         1 2T9       0.005000
      8 C8           1.5500    -1.9730     1.0790 ca         1 2T9      -0.154300
      9 C3           2.5220    -2.5090     0.2090 ca         1 2T9       0.220100
     10 O2           3.7670    -1.9120     0.1610 os         1 2T9      -0.313100
     11 C1           4.8050    -2.3560    -0.7290 c3         1 2T9       0.145900
     12 C9           1.8560    -0.7310     1.9180 c3         1 2T9       0.148900
     13 N10          1.9470     0.5100     1.1210 na         1 2T9      -0.106700
     14 C22          0.8780     1.1130     0.4770 ca         1 2T9      -0.053200
     15 C17          1.3160     2.1510    -0.2960 ca         1 2T9      -0.062800
     16 C12          2.7440     2.2450    -0.1440 cc         1 2T9      -0.025400
     17 C13          3.6650     3.2280    -0.8210 c3         1 2T9      -0.165200
     18 C14          3.6700     4.5970    -0.1180 c          1 2T9       0.720000
     19 O16          4.4360     4.7590     0.8210 o          1 2T9      -0.728500
     20 O15          2.8370     5.4240    -0.4570 o          1 2T9      -0.728500
     21 C11          3.1030     1.2210     0.7280 cd         1 2T9      -0.204100
     22 C21         -0.4820     0.7800     0.5390 ca         1 2T9      -0.131000
     23 C20         -1.4220     1.5050    -0.2410 cp         1 2T9      -0.040000
     24 C19         -0.9380     2.5830    -1.0420 ca         1 2T9      -0.152000
     25 C18          0.4330     2.9170    -1.0700 ca         1 2T9      -0.023000
     26 C23         -2.8720     1.1220    -0.2250 cp         1 2T9       0.061000
     27 C30         -3.8990     2.0850    -0.3710 ca         1 2T9      -0.209500
     28 C28         -5.2470     1.7090    -0.3440 ca         1 2T9       0.316500
     29 N29         -6.2220     2.6540    -0.4830 nv         1 2T9      -1.078000
     30 C27         -5.6050     0.3700    -0.1710 ca         1 2T9      -0.258000
     31 C25         -4.6090    -0.5970    -0.0270 ca         1 2T9       0.316500
     32 N26         -4.9470    -1.9070     0.1470 nv         1 2T9      -1.078000
     33 C24         -3.2610    -0.2290    -0.0580 ca         1 2T9      -0.209500
     34 H1           0.7150    -5.0900    -1.1320 ha         1 2T9       0.142000
     35 H2           2.9360    -4.0720    -1.2560 ha         1 2T9       0.127000
     36 H3          -0.4600    -2.1740     1.8540 ha         1 2T9       0.152000
     37 H4           5.7000    -1.7330    -0.6100 h1         1 2T9       0.049033
     38 H5           5.0850    -3.3960    -0.5150 h1         1 2T9       0.049033
     39 H6           4.4790    -2.2860    -1.7750 h1         1 2T9       0.049033
     40 H7           1.0820    -0.5940     2.6840 h1         1 2T9       0.060200
     41 H8           2.8070    -0.8770     2.4440 h1         1 2T9       0.060200
     42 H9           4.6680     2.7870    -0.7740 hc         1 2T9       0.028200
     43 H10          3.2970     3.3370    -1.8480 hc         1 2T9       0.028200
     44 H12          4.0900     0.9380     1.0770 h4         1 2T9       0.198000
     45 H13         -0.8160    -0.0230     1.1850 ha         1 2T9       0.097000
     46 H14         -1.6280     3.1530    -1.6570 ha         1 2T9       0.100000
     47 H15          0.7950     3.7370    -1.6850 ha         1 2T9       0.134000
     48 H16         -3.6410     3.1330    -0.4900 ha         1 2T9       0.117500
     49 H17         -5.9710     3.6010    -0.7590 hn         1 2T9       0.442750
     50 H18         -7.1900     2.3650    -0.6110 hn         1 2T9       0.442750
     51 H19         -6.6520     0.0830    -0.1470 ha         1 2T9       0.099000
     52 H20         -5.9150    -2.1490     0.3470 hn         1 2T9       0.442750
     53 H21         -4.2280    -2.5700     0.4350 hn         1 2T9       0.442750
     54 H22         -2.5040    -1.0010     0.0370 ha         1 2T9       0.117500
@<TRIPOS>BOND
     1     1     2 1   
     2     2     3 1   
     3     2     4 1   
     4     4     5 ar  
     5     4     7 ar  
     6     5     6 ar  
     7     5    34 1   
     8     6     9 ar  
     9     6    35 1   
    10     7     8 ar  
    11     7    36 1   
    12     8     9 ar  
    13     8    12 1   
    14     9    10 1   
    15    10    11 1   
    16    11    37 1   
    17    11    38 1   
    18    11    39 1   
    19    12    13 1   
    20    12    40 1   
    21    12    41 1   
    22    13    14 1   
    23    13    21 1   
    24    14    15 ar  
    25    14    22 ar  
    26    15    16 1   
    27    15    25 ar  
    28    16    17 1   
    29    16    21 2   
    30    17    18 1   
    31    17    42 1   
    32    17    43 1   
    33    18    19 1   
    34    18    20 1   
    35    21    44 1   
    36    22    23 ar  
    37    22    45 1   
    38    23    24 ar  
    39    23    26 1   
    40    24    25 ar  
    41    24    46 1   
    42    25    47 1   
    43    26    27 ar  
    44    26    33 ar  
    45    27    28 ar  
    46    27    48 1   
    47    28    29 1   
    48    28    30 ar  
    49    29    49 1   
    50    29    50 1   
    51    30    31 ar  
    52    30    51 1   
    53    31    32 1   
    54    31    33 ar  
    55    32    52 1   
    56    32    53 1   
    57    33    54 1   
@<TRIPOS>SUBSTRUCTURE
     1 2T9         1 TEMP              0 ****  ****    0 ROOT
