@<TRIPOS>MOLECULE
2TA
   73    76     1     0     0
SMALL
No Charge or Current Charge


@<TRIPOS>ATOM
      1 CAQ         11.6470    -0.7910     0.1370 c5         1 2TA       0.158800
      2 CAR         12.1060     0.4370     0.9620 c5         1 2TA      -0.079900
      3 CAS         10.8850     1.4070     0.8820 c5         1 2TA      -0.079900
      4 CAT          9.7840     0.5750     0.1660 c5         1 2TA       0.158800
      5 NAP         10.2040    -0.8160     0.4480 n3         1 2TA      -0.717600
      6 CAO          9.4320    -1.8890    -0.2400 c3         1 2TA       0.170800
      7 CAN          7.9260    -1.9840     0.1240 c3         1 2TA       0.163600
      8 OAM          7.2000    -0.9470    -0.5700 os         1 2TA      -0.349100
      9 CAJ          5.8400    -0.7770    -0.4250 ca         1 2TA       0.121100
     10 CAK          5.2300     0.2710    -1.1310 ca         1 2TA      -0.146500
     11 CAL          3.8450     0.4950    -1.0220 ca         1 2TA      -0.112000
     12 CAI          5.0490    -1.6130     0.3930 ca         1 2TA      -0.146500
     13 CAH          3.6630    -1.3860     0.4980 ca         1 2TA      -0.112000
     14 CAG          3.0510    -0.3260    -0.1950 ca         1 2TA       0.278000
     15 NAF          1.6660    -0.1510    -0.0660 nu         1 2TA      -0.926900
     16 C2           0.8010     0.9250    -0.1970 ca         1 2TA       0.422900
     17 N3          -0.4950     0.6010    -0.1190 nb         1 2TA      -0.321000
     18 N1           1.3140     2.1560    -0.3620 nb         1 2TA      -0.256000
     19 C6           0.4300     3.1640    -0.4660 ca         1 2TA       0.170900
     20 C5          -0.9570     2.9400    -0.4040 ca         1 2TA      -0.295300
     21 CAA         -1.9360     4.1070    -0.5210 c3         1 2TA      -0.024800
     22 C4          -1.3740     1.6070    -0.2350 ca         1 2TA       0.428900
     23 NAW         -2.7260     1.3020    -0.1320 nu         1 2TA      -0.938900
     24 CAX         -3.4690     0.1120    -0.1250 ca         1 2TA       0.295000
     25 CBC         -4.7310     0.1060     0.4990 ca         1 2TA      -0.076000
     26 CAY         -3.0170    -1.0660    -0.7560 ca         1 2TA      -0.083000
     27 CAZ         -3.8030    -2.2320    -0.7410 ca         1 2TA      -0.107000
     28 CBA         -5.0540    -2.2340    -0.1040 ca         1 2TA      -0.046000
     29 CBB         -5.5270    -1.0600     0.5170 ca         1 2TA      -0.231500
     30 SBD         -7.1400    -1.0320     1.3220 sy         1 2TA       1.157600
     31 OBJ         -7.8650    -2.2870     1.1150 o          1 2TA      -0.548000
     32 OBK         -6.9740    -0.4590     2.6590 o          1 2TA      -0.548000
     33 NBE         -7.9360     0.1810     0.4800 n7         1 2TA      -0.918300
     34 CBF         -8.5990    -0.0070    -0.8260 c3         1 2TA       0.256200
     35 CBH         -7.6650    -0.6880    -1.8570 c3         1 2TA      -0.108433
     36 CBI         -9.9270    -0.7910    -0.6670 c3         1 2TA      -0.108433
     37 CBG         -8.9240     1.4230    -1.3150 c3         1 2TA      -0.108433
     38 H1          11.8240    -0.6400    -0.9380 h1         1 2TA       0.038450
     39 H2          12.1620    -1.7110     0.4460 h1         1 2TA       0.038450
     40 H3          12.3100     0.1530     2.0010 hc         1 2TA       0.045950
     41 H4          13.0240     0.8800     0.5610 hc         1 2TA       0.045950
     42 H5          10.5620     1.7100     1.8850 hc         1 2TA       0.045950
     43 H6          11.1160     2.3230     0.3270 hc         1 2TA       0.045950
     44 H7           8.7840     0.8060     0.5580 h1         1 2TA       0.038450
     45 H8           9.7810     0.7760    -0.9150 h1         1 2TA       0.038450
     46 H10          9.5200    -1.7790    -1.3290 h1         1 2TA       0.040200
     47 H11          9.8840    -2.8580     0.0130 h1         1 2TA       0.040200
     48 H12          7.5530    -2.9700    -0.1810 h1         1 2TA       0.040700
     49 H13          7.8070    -1.8910     1.2120 h1         1 2TA       0.040700
     50 H14          5.8330     0.9110    -1.7710 ha         1 2TA       0.121500
     51 H15          3.3960     1.2970    -1.5990 ha         1 2TA       0.129500
     52 H16          5.4870    -2.4380     0.9490 ha         1 2TA       0.121500
     53 H17          3.0650    -2.0360     1.1310 ha         1 2TA       0.129500
     54 H18          1.1780    -0.9800     0.2710 hn         1 2TA       0.506000
     55 H19          0.8420     4.1630    -0.5980 h4         1 2TA       0.020100
     56 H20         -2.6430     3.9510    -1.3460 hc         1 2TA       0.040033
     57 H21         -2.5140     4.2340     0.4020 hc         1 2TA       0.040033
     58 H22         -1.4140     5.0520    -0.7140 hc         1 2TA       0.040033
     59 H23         -3.2890     2.1320     0.0350 hn         1 2TA       0.503000
     60 H24         -5.0970     1.0130     0.9750 ha         1 2TA       0.122000
     61 H25         -2.0660    -1.0790    -1.2770 ha         1 2TA       0.149000
     62 H26         -3.4440    -3.1340    -1.2320 ha         1 2TA       0.118000
     63 H27         -5.6540    -3.1440    -0.1020 ha         1 2TA       0.144000
     64 H28         -8.6340     0.4570     1.1660 hn         1 2TA       0.491000
     65 H29         -7.4720    -1.7340    -1.5970 hc         1 2TA       0.047922
     66 H30         -8.1240    -0.6810    -2.8520 hc         1 2TA       0.047922
     67 H31         -6.7060    -0.1610    -1.9280 hc         1 2TA       0.047922
     68 H32        -10.5410    -0.3730     0.1390 hc         1 2TA       0.047922
     69 H33        -10.5130    -0.7400    -1.5930 hc         1 2TA       0.047922
     70 H34         -9.7580    -1.8520    -0.4590 hc         1 2TA       0.047922
     71 H35         -8.0080     2.0180    -1.4160 hc         1 2TA       0.047922
     72 H36         -9.4200     1.4000    -2.2930 hc         1 2TA       0.047922
     73 H37         -9.5890     1.9400    -0.6130 hc         1 2TA       0.047922
@<TRIPOS>BOND
     1     1     2 1   
     2     1     5 1   
     3     1    38 1   
     4     1    39 1   
     5     2     3 1   
     6     2    40 1   
     7     2    41 1   
     8     3     4 1   
     9     3    42 1   
    10     3    43 1   
    11     4     5 1   
    12     4    44 1   
    13     4    45 1   
    14     5     6 1   
    15     6     7 1   
    16     6    46 1   
    17     6    47 1   
    18     7     8 1   
    19     7    48 1   
    20     7    49 1   
    21     8     9 1   
    22     9    10 ar  
    23     9    12 ar  
    24    10    11 ar  
    25    10    50 1   
    26    11    14 ar  
    27    11    51 1   
    28    12    13 ar  
    29    12    52 1   
    30    13    14 ar  
    31    13    53 1   
    32    14    15 1   
    33    15    16 1   
    34    15    54 1   
    35    16    17 ar  
    36    16    18 ar  
    37    17    22 ar  
    38    18    19 ar  
    39    19    20 ar  
    40    19    55 1   
    41    20    21 1   
    42    20    22 ar  
    43    21    56 1   
    44    21    57 1   
    45    21    58 1   
    46    22    23 1   
    47    23    24 1   
    48    23    59 1   
    49    24    25 ar  
    50    24    26 ar  
    51    25    29 ar  
    52    25    60 1   
    53    26    27 ar  
    54    26    61 1   
    55    27    28 ar  
    56    27    62 1   
    57    28    29 ar  
    58    28    63 1   
    59    29    30 1   
    60    30    31 2   
    61    30    32 2   
    62    30    33 1   
    63    33    34 1   
    64    33    64 1   
    65    34    35 1   
    66    34    36 1   
    67    34    37 1   
    68    35    65 1   
    69    35    66 1   
    70    35    67 1   
    71    36    68 1   
    72    36    69 1   
    73    36    70 1   
    74    37    71 1   
    75    37    72 1   
    76    37    73 1   
@<TRIPOS>SUBSTRUCTURE
     1 2TA         1 TEMP              0 ****  ****    0 ROOT
