@<TRIPOS>MOLECULE
2TA
   73    76     1     0     0
SMALL
bcc


@<TRIPOS>ATOM
      1 CAQ         11.3900    -1.0530     0.2170 c5         1 2TA       0.158800
      2 CAR         11.9570     0.0500     1.1070 c5         1 2TA      -0.079900
      3 CAS         10.8680     1.1430     1.0870 c5         1 2TA      -0.079900
      4 CAT          9.7410     0.5480     0.2370 c5         1 2TA       0.158800
      5 NAP          9.9500    -0.8890     0.3320 n3         1 2TA      -0.717600
      6 CAO          9.2280    -1.6950    -0.6260 c3         1 2TA       0.170800
      7 CAN          7.7410    -1.8070    -0.3700 c3         1 2TA       0.140400
      8 OAM          7.0940    -0.6050    -0.7490 os         1 2TA      -0.325900
      9 CAJ          5.7560    -0.5160    -0.5940 ca         1 2TA       0.121100
     10 CAK          5.1590     0.6900    -0.9550 ca         1 2TA      -0.164500
     11 CAL          3.7930     0.8820    -0.8450 ca         1 2TA      -0.130000
     12 CAI          4.9450    -1.5370    -0.1070 ca         1 2TA      -0.164500
     13 CAH          3.5770    -1.3420     0.0080 ca         1 2TA      -0.130000
     14 CAG          2.9730    -0.1390    -0.3560 ca         1 2TA       0.139600
     15 NAF          1.5860    -0.0650    -0.2290 nu         1 2TA      -0.733300
     16 C2           0.7360     0.9970    -0.2770 ca         1 2TA       0.948900
     17 N3          -0.5470     0.6660    -0.0890 nb         1 2TA      -0.847000
     18 N1           1.1960     2.2180    -0.4880 nb         1 2TA      -0.782000
     19 C6           0.2740     3.1840    -0.5020 ca         1 2TA       0.499200
     20 C5          -1.0730     2.9880    -0.3170 ca         1 2TA      -0.425900
     21 CAA         -2.0650     4.1080    -0.3420 c3         1 2TA      -0.024800
     22 C4          -1.4400     1.6350    -0.1080 ca         1 2TA       0.757200
     23 NAW         -2.7570     1.3440     0.0800 nu         1 2TA      -0.745300
     24 CAX         -3.4090     0.1310     0.2720 ca         1 2TA       0.156600
     25 CBC         -4.7570     0.2050     0.6290 ca         1 2TA      -0.094000
     26 CAY         -2.8280    -1.1310     0.1080 ca         1 2TA      -0.101000
     27 CAZ         -3.5870    -2.2750     0.2990 ca         1 2TA      -0.125000
     28 CBA         -4.9270    -2.2100     0.6510 ca         1 2TA      -0.064000
     29 CBB         -5.4920    -0.9540     0.8030 ca         1 2TA      -0.231500
     30 SBD         -7.1810    -0.8100     1.3280 sy         1 2TA       1.299200
     31 OBJ         -7.7640    -2.1450     1.2720 o          1 2TA      -0.618800
     32 OBK         -7.2000    -0.1050     2.6040 o          1 2TA      -0.618800
     33 NBE         -7.8370     0.2360     0.2500 n7         1 2TA      -0.863100
     34 CBF         -8.3760    -0.1300    -1.0790 c3         1 2TA       0.256200
     35 CBH         -7.3850    -0.9990    -1.8460 c3         1 2TA      -0.108433
     36 CBI         -9.7270    -0.8340    -0.9540 c3         1 2TA      -0.108433
     37 CBG         -8.5490     1.1990    -1.8120 c3         1 2TA      -0.108433
     38 H1          11.7310    -0.9140    -0.8230 h1         1 2TA       0.038450
     39 H2          11.6930    -2.0560     0.5250 h1         1 2TA       0.038450
     40 H3          12.1170    -0.3190     2.1210 hc         1 2TA       0.045950
     41 H4          12.9180     0.4060     0.7380 hc         1 2TA       0.045950
     42 H5          10.5200     1.3630     2.0960 hc         1 2TA       0.045950
     43 H6          11.2260     2.0800     0.6610 hc         1 2TA       0.045950
     44 H7           8.7540     0.8390     0.5920 h1         1 2TA       0.038450
     45 H8           9.8280     0.8940    -0.8080 h1         1 2TA       0.038450
     46 H10          9.3980    -1.3600    -1.6640 h1         1 2TA       0.040200
     47 H11          9.6200    -2.7140    -0.5650 h1         1 2TA       0.040200
     48 H12          7.3490    -2.6460    -0.9570 h1         1 2TA       0.040700
     49 H13          7.5640    -2.0280     0.6880 h1         1 2TA       0.040700
     50 H14          5.7770     1.4950    -1.3360 ha         1 2TA       0.139500
     51 H15          3.3690     1.8290    -1.1370 ha         1 2TA       0.147500
     52 H16          5.3520    -2.4920     0.1960 ha         1 2TA       0.139500
     53 H17          2.9700    -2.1540     0.3920 ha         1 2TA       0.147500
     54 H18          1.1270    -0.9340    -0.0060 hn         1 2TA       0.450800
     55 H19          0.6450     4.1890    -0.6770 h4         1 2TA       0.020100
     56 H20         -2.8290     3.9610    -1.1090 hc         1 2TA       0.040033
     57 H21         -2.5800     4.2230     0.6150 hc         1 2TA       0.040033
     58 H22         -1.5700     5.0530    -0.5560 hc         1 2TA       0.040033
     59 H23         -3.3680     2.1440     0.1160 hn         1 2TA       0.447800
     60 H24         -5.2290     1.1730     0.7500 ha         1 2TA       0.140000
     61 H25         -1.7900    -1.2200    -0.1650 ha         1 2TA       0.167000
     62 H26         -3.1190    -3.2400     0.1630 ha         1 2TA       0.136000
     63 H27         -5.5060    -3.1110     0.7880 ha         1 2TA       0.162000
     64 H28         -8.3950     0.9300     0.7380 hn         1 2TA       0.435800
     65 H29         -7.2240    -1.9700    -1.3770 hc         1 2TA       0.047922
     66 H30         -7.7820    -1.1880    -2.8430 hc         1 2TA       0.047922
     67 H31         -6.4210    -0.5030    -1.9570 hc         1 2TA       0.047922
     68 H32        -10.4340    -0.2200    -0.3920 hc         1 2TA       0.047922
     69 H33        -10.1530    -1.0120    -1.9420 hc         1 2TA       0.047922
     70 H34         -9.6350    -1.7960    -0.4520 hc         1 2TA       0.047922
     71 H35         -7.5950     1.7170    -1.9130 hc         1 2TA       0.047922
     72 H36         -8.9510     1.0270    -2.8120 hc         1 2TA       0.047922
     73 H37         -9.2440     1.8570    -1.2860 hc         1 2TA       0.047922
@<TRIPOS>BOND
     1     1     2 1   
     2     1     5 1   
     3     1    38 1   
     4     1    39 1   
     5     2     3 1   
     6     2    40 1   
     7     2    41 1   
     8     3     4 1   
     9     3    42 1   
    10     3    43 1   
    11     4     5 1   
    12     4    44 1   
    13     4    45 1   
    14     5     6 1   
    15     6     7 1   
    16     6    46 1   
    17     6    47 1   
    18     7     8 1   
    19     7    48 1   
    20     7    49 1   
    21     8     9 1   
    22     9    10 ar  
    23     9    12 ar  
    24    10    11 ar  
    25    10    50 1   
    26    11    14 ar  
    27    11    51 1   
    28    12    13 ar  
    29    12    52 1   
    30    13    14 ar  
    31    13    53 1   
    32    14    15 1   
    33    15    16 1   
    34    15    54 1   
    35    16    17 ar  
    36    16    18 ar  
    37    17    22 ar  
    38    18    19 ar  
    39    19    20 ar  
    40    19    55 1   
    41    20    21 1   
    42    20    22 ar  
    43    21    56 1   
    44    21    57 1   
    45    21    58 1   
    46    22    23 1   
    47    23    24 1   
    48    23    59 1   
    49    24    25 ar  
    50    24    26 ar  
    51    25    29 ar  
    52    25    60 1   
    53    26    27 ar  
    54    26    61 1   
    55    27    28 ar  
    56    27    62 1   
    57    28    29 ar  
    58    28    63 1   
    59    29    30 1   
    60    30    31 2   
    61    30    32 2   
    62    30    33 1   
    63    33    34 1   
    64    33    64 1   
    65    34    35 1   
    66    34    36 1   
    67    34    37 1   
    68    35    65 1   
    69    35    66 1   
    70    35    67 1   
    71    36    68 1   
    72    36    69 1   
    73    36    70 1   
    74    37    71 1   
    75    37    72 1   
    76    37    73 1   
@<TRIPOS>SUBSTRUCTURE
     1 2TA         1 TEMP              0 ****  ****    0 ROOT
