@<TRIPOS>MOLECULE
2TB
   27    27     1     0     0
SMALL
No Charge or Current Charge


@<TRIPOS>ATOM
      1 C1          -1.2220     0.9460     0.3490 c6         1 2TB       0.113800
      2 C2           0.0410     1.7140    -0.1120 c6         1 2TB      -0.133400
      3 C3           1.3230     0.9670     0.3240 c6         1 2TB       0.113800
      4 C4           1.3320    -0.4890    -0.2270 c6         1 2TB       0.139800
      5 C5           0.0650    -1.2560     0.2580 c6         1 2TB       0.131300
      6 C6          -1.2280    -0.5130    -0.2060 c6         1 2TB       0.139800
      7 N1          -2.4690     1.7120    -0.1490 nz         1 2TB      -0.970500
      8 N3           2.5530     1.7270    -0.2130 nz         1 2TB      -0.970500
      9 O5           0.0920    -2.6080    -0.2380 oh         1 2TB      -0.634000
     10 O4           2.5200    -1.1690     0.2110 oh         1 2TB      -0.722500
     11 O6          -2.4010    -1.2050     0.2700 oh         1 2TB      -0.722500
     12 H1          -1.2790     0.9220     1.4470 hx         1 2TB       0.136700
     13 H21          0.0290     1.8350    -1.2040 hc         1 2TB       0.091200
     14 H22          0.0380     2.7250     0.3180 hc         1 2TB       0.091200
     15 H3           1.4090     0.9470     1.4200 hx         1 2TB       0.136700
     16 H4           1.3070    -0.4460    -1.3280 h1         1 2TB       0.071200
     17 H5           0.0730    -1.2630     1.3600 h1         1 2TB       0.084700
     18 H6          -1.2250    -0.4670    -1.3070 h1         1 2TB       0.071200
     19 HN11        -2.5170     1.8170    -1.1730 hn         1 2TB       0.530500
     20 HN12        -2.5470     2.6660     0.2360 hn         1 2TB       0.530500
     21 HN13        -3.3450     1.2380     0.1230 hn         1 2TB       0.530500
     22 HN31         2.6820     2.6610     0.2030 hn         1 2TB       0.530500
     23 HN32         3.4240     1.2070    -0.0150 hn         1 2TB       0.530500
     24 HN33         2.5480     1.8640    -1.2350 hn         1 2TB       0.530500
     25 HO5         -0.7450    -3.0290     0.0700 ho         1 2TB       0.498000
     26 HO4          2.3330    -2.1310     0.0670 ho         1 2TB       0.576000
     27 HO6         -2.9020    -1.5280    -0.5210 ho         1 2TB       0.576000
@<TRIPOS>BOND
     1     1     2 1   
     2     1     6 1   
     3     1     7 1   
     4     1    12 1   
     5     2     3 1   
     6     2    13 1   
     7     2    14 1   
     8     3     4 1   
     9     3     8 1   
    10     3    15 1   
    11     4     5 1   
    12     4    10 1   
    13     4    16 1   
    14     5     6 1   
    15     5     9 1   
    16     5    17 1   
    17     6    11 1   
    18     6    18 1   
    19     7    19 1   
    20     7    20 1   
    21     7    21 1   
    22     8    22 1   
    23     8    23 1   
    24     8    24 1   
    25     9    25 1   
    26    10    26 1   
    27    11    27 1   
@<TRIPOS>SUBSTRUCTURE
     1 2TB         1 TEMP              0 ****  ****    0 ROOT
