@<TRIPOS>MOLECULE
2TB
   27    27     1     0     0
SMALL
abcg2


@<TRIPOS>ATOM
      1 C1          -1.2090     0.9850     0.3030 c6         1 2TB       0.113800
      2 C2           0.0410     1.7150    -0.1590 c6         1 2TB      -0.133400
      3 C3           1.2630     0.9340     0.2960 c6         1 2TB       0.113800
      4 C4           1.2590    -0.4920    -0.2330 c6         1 2TB       0.139800
      5 C5          -0.0150    -1.1990     0.2270 c6         1 2TB       0.131300
      6 C6          -1.2600    -0.4380    -0.2360 c6         1 2TB       0.139800
      7 N1          -2.4240     1.7180    -0.1350 nz         1 2TB      -0.970500
      8 N3           2.5020     1.6170    -0.1570 nz         1 2TB      -0.970500
      9 O5           0.0060    -2.4920    -0.3180 oh         1 2TB      -0.634000
     10 O4           2.4150    -1.1130     0.2570 oh         1 2TB      -0.722500
     11 O6          -2.4390    -1.0300     0.2450 oh         1 2TB      -0.722500
     12 H1          -1.2560     0.9720     1.3940 hx         1 2TB       0.136700
     13 H21          0.0390     1.8070    -1.2500 hc         1 2TB       0.091200
     14 H22          0.0650     2.7240     0.2570 hc         1 2TB       0.091200
     15 H3           1.3190     0.9250     1.3870 hx         1 2TB       0.136700
     16 H4           1.2620    -0.4590    -1.3340 h1         1 2TB       0.071200
     17 H5          -0.0150    -1.2320     1.3260 h1         1 2TB       0.084700
     18 H6          -1.2580    -0.3980    -1.3350 h1         1 2TB       0.071200
     19 HN11        -2.4540     1.8620    -1.1450 hn         1 2TB       0.530500
     20 HN12        -2.4930     2.6370     0.3030 hn         1 2TB       0.530500
     21 HN13        -3.2670     1.1990     0.1200 hn         1 2TB       0.530500
     22 HN31         2.6020     2.5430     0.2600 hn         1 2TB       0.530500
     23 HN32         3.3290     1.0790     0.1070 hn         1 2TB       0.530500
     24 HN33         2.5360     1.7390    -1.1710 hn         1 2TB       0.530500
     25 HO5         -0.4500    -3.0930     0.2790 ho         1 2TB       0.498000
     26 HO4          2.5220    -1.9640    -0.1820 ho         1 2TB       0.576000
     27 HO6         -2.7330    -1.7010    -0.3780 ho         1 2TB       0.576000
@<TRIPOS>BOND
     1     1     2 1   
     2     1     6 1   
     3     1     7 1   
     4     1    12 1   
     5     2     3 1   
     6     2    13 1   
     7     2    14 1   
     8     3     4 1   
     9     3     8 1   
    10     3    15 1   
    11     4     5 1   
    12     4    10 1   
    13     4    16 1   
    14     5     6 1   
    15     5     9 1   
    16     5    17 1   
    17     6    11 1   
    18     6    18 1   
    19     7    19 1   
    20     7    20 1   
    21     7    21 1   
    22     8    22 1   
    23     8    23 1   
    24     8    24 1   
    25     9    25 1   
    26    10    26 1   
    27    11    27 1   
@<TRIPOS>SUBSTRUCTURE
     1 2TB         1 TEMP              0 ****  ****    0 ROOT
