@<TRIPOS>MOLECULE
2TC
   53    56     1     0     0
SMALL
No Charge or Current Charge


@<TRIPOS>ATOM
      1 C1          -2.7510     0.6920    -1.5960 c          1 2TC       0.605300
      2 O1          -2.8810     1.1840    -2.7120 o          1 2TC      -0.506100
      3 C2          -3.2530     1.3900    -0.3710 ce         1 2TC      -0.232900
      4 C21         -3.5350     2.7850    -0.4830 cg         1 2TC       0.291700
      5 N21         -3.7750     3.9250    -0.5180 n1         1 2TC      -0.451000
      6 C3          -3.5260     0.6920     0.7530 c2         1 2TC       0.227900
      7 O3          -3.9970     1.2370     1.8970 oh         1 2TC      -0.510100
      8 C4          -3.2860    -0.8250     0.8370 c6         1 2TC       0.229700
      9 N4          -4.4480    -1.6370     0.3210 n3         1 2TC      -0.691600
     10 C43         -4.2640    -3.1060     0.4430 c3         1 2TC       0.149100
     11 C42         -5.7570    -1.2240     0.8890 c3         1 2TC       0.149100
     12 C41         -1.9250    -1.1140     0.1040 c6         1 2TC      -0.053700
     13 C5          -0.7540    -0.5070     0.9390 c6         1 2TC      -0.082400
     14 C51          0.6300    -0.7140     0.2700 c6         1 2TC      -0.045700
     15 C6           1.8320    -0.2540     1.1820 c5         1 2TC       0.242300
     16 C62          1.9140    -1.0480     2.5080 c3         1 2TC      -0.095100
     17 O6           1.6590     1.1620     1.5230 os         1 2TC      -0.423100
     18 C61          3.1610    -0.2810     0.4370 ca         1 2TC      -0.046300
     19 C7           3.8750    -1.3520    -0.1380 ca         1 2TC       0.089000
     20 C8           5.1020    -1.0760    -0.7780 ca         1 2TC      -0.033000
     21 C9           5.5980     0.2470    -0.8360 ca         1 2TC      -0.151000
     22 C10          4.8730     1.3000    -0.2520 ca         1 2TC       0.239100
     23 O10          5.3440     2.5750    -0.2990 oh         1 2TC      -0.513100
     24 C1A          3.6630     0.9990     0.3750 ca         1 2TC      -0.310600
     25 C1B          0.6080     0.0290    -1.0940 c6         1 2TC      -0.178400
     26 C12         -0.5340    -0.4050    -2.0170 c          1 2TC       0.559100
     27 O12         -0.3290    -0.5290    -3.2200 o          1 2TC      -0.496100
     28 C1C         -1.9550    -0.6440    -1.4090 c6         1 2TC       0.003000
     29 Cl7          3.2860    -3.0110    -0.0770 cl         1 2TC      -0.184000
     30 C11          2.7230     1.8970     1.0560 c          1 2TC       0.685700
     31 O1C         -2.6030    -1.6970    -2.1950 oh         1 2TC      -0.616000
     32 H3          -4.1190     2.1990     1.7480 ho         1 2TC       0.500000
     33 H4          -3.1450    -1.0810     1.8980 h1         1 2TC       0.048700
     34 H41         -1.7380    -2.1960     0.1130 hc         1 2TC       0.076700
     35 H421        -5.9910    -0.1820     0.6360 h1         1 2TC       0.037867
     36 H422        -6.5680    -1.8440     0.4850 h1         1 2TC       0.037867
     37 H423        -5.7600    -1.3260     1.9820 h1         1 2TC       0.037867
     38 H431        -4.0770    -3.3930     1.4870 h1         1 2TC       0.037867
     39 H432        -5.1620    -3.6380     0.1000 h1         1 2TC       0.037867
     40 H433        -3.4310    -3.4640    -0.1720 h1         1 2TC       0.037867
     41 H51C        -0.9120     0.5650     1.1210 hc         1 2TC       0.061700
     42 H52C        -0.7660    -0.9810     1.9290 hc         1 2TC       0.061700
     43 H51          0.7520    -1.7880     0.0710 hc         1 2TC       0.071700
     44 H1B          0.4250     1.0900    -0.8780 hc         1 2TC       0.087700
     45 H621         1.8660    -2.1290     2.3350 hc         1 2TC       0.058700
     46 H622         2.8560    -0.8380     3.0290 hc         1 2TC       0.058700
     47 H623         1.1020    -0.7800     3.1940 hc         1 2TC       0.058700
     48 H8           5.6680    -1.8870    -1.2290 ha         1 2TC       0.138000
     49 H9           6.5440     0.4530    -1.3300 ha         1 2TC       0.145000
     50 H10          4.6940     3.1480     0.1660 ho         1 2TC       0.506000
     51 H2B          1.5540    -0.0400    -1.6460 hc         1 2TC       0.087700
     52 H1C         -2.5110    -1.4570    -3.1470 ho         1 2TC       0.471000
     53 O11          2.8650     3.1040     1.1830 o          1 2TC      -0.506000
@<TRIPOS>BOND
     1     1     2 2   
     2     1     3 1   
     3     1    28 1   
     4     3     4 1   
     5     3     6 2   
     6     4     5 3   
     7     6     7 1   
     8     6     8 1   
     9     7    32 1   
    10     8     9 1   
    11     8    12 1   
    12     8    33 1   
    13     9    10 1   
    14     9    11 1   
    15    10    38 1   
    16    10    39 1   
    17    10    40 1   
    18    11    35 1   
    19    11    36 1   
    20    11    37 1   
    21    12    13 1   
    22    12    28 1   
    23    12    34 1   
    24    13    14 1   
    25    13    41 1   
    26    13    42 1   
    27    14    15 1   
    28    14    25 1   
    29    14    43 1   
    30    15    16 1   
    31    15    17 1   
    32    15    18 1   
    33    16    45 1   
    34    16    46 1   
    35    16    47 1   
    36    17    30 1   
    37    18    19 ar  
    38    18    24 ar  
    39    19    20 ar  
    40    19    29 1   
    41    20    21 ar  
    42    20    48 1   
    43    21    22 ar  
    44    21    49 1   
    45    22    23 1   
    46    22    24 ar  
    47    23    50 1   
    48    24    30 1   
    49    25    26 1   
    50    25    44 1   
    51    25    51 1   
    52    26    27 2   
    53    26    28 1   
    54    28    31 1   
    55    30    53 2   
    56    31    52 1   
@<TRIPOS>SUBSTRUCTURE
     1 2TC         1 TEMP              0 ****  ****    0 ROOT
