@<TRIPOS>MOLECULE
2TC
   53    56     1     0     0
SMALL
bcc


@<TRIPOS>ATOM
      1 C1          -2.4490     0.8560    -1.3830 c          1 2TC       0.605300
      2 O1          -2.2190     1.5480    -2.3530 o          1 2TC      -0.506100
      3 C2          -3.1870     1.3670    -0.2380 ce         1 2TC      -0.232900
      4 C21         -3.5100     2.7490    -0.2430 cg         1 2TC       0.202500
      5 N21         -3.7860     3.8680    -0.2260 n1         1 2TC      -0.361800
      6 C3          -3.4810     0.5950     0.8510 c2         1 2TC       0.227900
      7 O3          -3.9840     1.0510     1.9650 oh         1 2TC      -0.471100
      8 C4          -3.2380    -0.8930     0.8370 c6         1 2TC       0.229700
      9 N4          -4.3800    -1.5740     0.2410 n3         1 2TC      -0.691600
     10 C43         -4.2260    -3.0160     0.3000 c3         1 2TC       0.149100
     11 C42         -5.6520    -1.1800     0.8210 c3         1 2TC       0.149100
     12 C41         -1.9130    -1.1480     0.0970 c6         1 2TC      -0.053700
     13 C5          -0.7590    -0.5840     0.9380 c6         1 2TC      -0.082400
     14 C51          0.5950    -0.7300     0.2520 c6         1 2TC      -0.045700
     15 C6           1.7580    -0.2220     1.1250 c5         1 2TC       0.219100
     16 C62          1.8240    -0.8900     2.4910 c3         1 2TC      -0.095100
     17 O6           1.5800     1.1980     1.3330 os         1 2TC      -0.399900
     18 C61          3.0890    -0.2940     0.4120 ca         1 2TC      -0.046300
     19 C7           3.8340    -1.3500    -0.0600 ca         1 2TC      -0.002600
     20 C8           5.0550    -1.0770    -0.6780 ca         1 2TC      -0.051000
     21 C9           5.5260     0.2170    -0.8220 ca         1 2TC      -0.169000
     22 C10          4.7810     1.2950    -0.3440 ca         1 2TC       0.239100
     23 O10          5.2490     2.5330    -0.4880 oh         1 2TC      -0.474100
     24 C1A          3.5670     0.9970     0.2670 ca         1 2TC      -0.310600
     25 C1B          0.5620    -0.0280    -1.1130 c6         1 2TC      -0.178400
     26 C12         -0.5420    -0.6060    -1.9380 c          1 2TC       0.559100
     27 O12         -0.3780    -1.1010    -3.0260 o          1 2TC      -0.496100
     28 C1C         -1.9530    -0.5980    -1.3360 c6         1 2TC      -0.020200
     29 CL7          3.3080    -2.9910     0.0900 cl         1 2TC      -0.092400
     30 C11          2.6020     1.9140     0.8560 c          1 2TC       0.761200
     31 O1C         -2.8050    -1.3430    -2.1510 oh         1 2TC      -0.553800
     32 H3          -4.1410     2.0090     1.9610 ho         1 2TC       0.461000
     33 H4          -3.0940    -1.2020     1.8870 h1         1 2TC       0.048700
     34 H41         -1.7510    -2.2260     0.0220 hc         1 2TC       0.076700
     35 H421        -5.8820    -0.1360     0.6090 h1         1 2TC       0.037867
     36 H422        -6.4430    -1.7690     0.3580 h1         1 2TC       0.037867
     37 H423        -5.7130    -1.3340     1.9080 h1         1 2TC       0.037867
     38 H431        -4.0670    -3.3930     1.3210 h1         1 2TC       0.037867
     39 H432        -5.1290    -3.4840    -0.0910 h1         1 2TC       0.037867
     40 H433        -3.4000    -3.3540    -0.3220 h1         1 2TC       0.037867
     41 H51C        -0.9220     0.4670     1.1910 hc         1 2TC       0.061700
     42 H52C        -0.7610    -1.1360     1.8780 hc         1 2TC       0.061700
     43 H51          0.7820    -1.7960     0.0860 hc         1 2TC       0.071700
     44 H1B          0.3750     1.0440    -0.9820 hc         1 2TC       0.087700
     45 H621         1.8920    -1.9710     2.3810 hc         1 2TC       0.058700
     46 H622         2.7020    -0.5480     3.0390 hc         1 2TC       0.058700
     47 H623         0.9420    -0.6630     3.0870 hc         1 2TC       0.058700
     48 H8           5.6540    -1.8950    -1.0560 ha         1 2TC       0.156000
     49 H9           6.4770     0.3910    -1.3080 ha         1 2TC       0.163000
     50 H10          4.6300     3.1810    -0.1210 ho         1 2TC       0.467000
     51 H2B          1.4960    -0.1360    -1.6650 hc         1 2TC       0.087700
     52 H1C         -2.3280    -1.5030    -2.9800 ho         1 2TC       0.432000
     53 O11          2.6520     3.1160     0.9340 o          1 2TC      -0.581500
@<TRIPOS>BOND
     1     1     2 2   
     2     1     3 1   
     3     1    28 1   
     4     3     4 1   
     5     3     6 2   
     6     4     5 3   
     7     6     7 1   
     8     6     8 1   
     9     7    32 1   
    10     8     9 1   
    11     8    12 1   
    12     8    33 1   
    13     9    10 1   
    14     9    11 1   
    15    10    38 1   
    16    10    39 1   
    17    10    40 1   
    18    11    35 1   
    19    11    36 1   
    20    11    37 1   
    21    12    13 1   
    22    12    28 1   
    23    12    34 1   
    24    13    14 1   
    25    13    41 1   
    26    13    42 1   
    27    14    15 1   
    28    14    25 1   
    29    14    43 1   
    30    15    16 1   
    31    15    17 1   
    32    15    18 1   
    33    16    45 1   
    34    16    46 1   
    35    16    47 1   
    36    17    30 1   
    37    18    19 ar  
    38    18    24 ar  
    39    19    20 ar  
    40    19    29 1   
    41    20    21 ar  
    42    20    48 1   
    43    21    22 ar  
    44    21    49 1   
    45    22    23 1   
    46    22    24 ar  
    47    23    50 1   
    48    24    30 1   
    49    25    26 1   
    50    25    44 1   
    51    25    51 1   
    52    26    27 2   
    53    26    28 1   
    54    28    31 1   
    55    30    53 2   
    56    31    52 1   
@<TRIPOS>SUBSTRUCTURE
     1 2TC         1 TEMP              0 ****  ****    0 ROOT
