@<TRIPOS>MOLECULE
2TD
   38    37     1     0     0
SMALL
abcg2


@<TRIPOS>ATOM
      1 O1          -5.8880    -1.4390     0.0190 o          1 2TD      -0.520100
      2 C2          -5.8380    -0.2300    -0.0310 c          1 2TD       0.570100
      3 C1          -7.0780     0.6190    -0.1090 c3         1 2TD      -0.202100
      4 C3          -4.5330     0.5240    -0.0210 c3         1 2TD      -0.183400
      5 C4          -3.2810    -0.3380     0.0050 c3         1 2TD      -0.065400
      6 C5          -2.0110     0.5050     0.0170 c3         1 2TD      -0.076400
      7 C6          -0.7400    -0.3340     0.0400 c3         1 2TD      -0.074400
      8 C7           0.5320     0.5060     0.0550 c3         1 2TD      -0.074400
      9 C8           1.8050    -0.3300     0.0830 c3         1 2TD      -0.074400
     10 C9           3.0740     0.5130     0.1040 c3         1 2TD      -0.075400
     11 C10          4.3480    -0.3220     0.1440 c3         1 2TD      -0.072400
     12 C11          5.6160     0.5320     0.1650 c3         1 2TD      -0.045200
     13 C12          6.8570    -0.2940     0.2810 c2         1 2TD      -0.215200
     14 C13          7.8400    -0.3360    -0.6120 c2         1 2TD      -0.320000
     15 H1          -7.9820     0.0150    -0.0700 hc         1 2TD       0.059700
     16 H1A         -7.0940     1.3430     0.7070 hc         1 2TD       0.059700
     17 H1B         -7.0750     1.1950    -1.0370 hc         1 2TD       0.059700
     18 H3          -4.5260     1.1900    -0.8920 hc         1 2TD       0.058200
     19 H3A         -4.5530     1.2000     0.8430 hc         1 2TD       0.058200
     20 H4          -3.2940    -0.9860     0.8860 hc         1 2TD       0.052200
     21 H4A         -3.2690    -1.0010    -0.8640 hc         1 2TD       0.052200
     22 H5          -1.9980     1.1580    -0.8630 hc         1 2TD       0.035700
     23 H5A         -2.0220     1.1700     0.8870 hc         1 2TD       0.035700
     24 H6          -0.7530    -0.9890     0.9190 hc         1 2TD       0.039700
     25 H6A         -0.7260    -0.9980    -0.8320 hc         1 2TD       0.039700
     26 H7           0.5460     1.1600    -0.8240 hc         1 2TD       0.036700
     27 H7A          0.5160     1.1700     0.9260 hc         1 2TD       0.036700
     28 H8           1.7900    -0.9840     0.9620 hc         1 2TD       0.038200
     29 H8A          1.8240    -0.9940    -0.7880 hc         1 2TD       0.038200
     30 H9           3.0940     1.1630    -0.7780 hc         1 2TD       0.037200
     31 H9A          3.0520     1.1810     0.9720 hc         1 2TD       0.037200
     32 H10          4.3310    -0.9680     1.0290 hc         1 2TD       0.040200
     33 H10A         4.3770    -0.9910    -0.7220 hc         1 2TD       0.040200
     34 H11          5.6610     1.1530    -0.7350 hc         1 2TD       0.043700
     35 H11A         5.5610     1.2190     1.0170 hc         1 2TD       0.043700
     36 H12          6.9300    -0.9130     1.1730 ha         1 2TD       0.164000
     37 H13          8.7100    -0.9640    -0.4680 ha         1 2TD       0.160500
     38 H13A         7.8140     0.2590    -1.5180 ha         1 2TD       0.160500
@<TRIPOS>BOND
     1     1     2 2   
     2     2     3 1   
     3     2     4 1   
     4     3    15 1   
     5     3    16 1   
     6     3    17 1   
     7     4     5 1   
     8     4    18 1   
     9     4    19 1   
    10     5     6 1   
    11     5    20 1   
    12     5    21 1   
    13     6     7 1   
    14     6    22 1   
    15     6    23 1   
    16     7     8 1   
    17     7    24 1   
    18     7    25 1   
    19     8     9 1   
    20     8    26 1   
    21     8    27 1   
    22     9    10 1   
    23     9    28 1   
    24     9    29 1   
    25    10    11 1   
    26    10    30 1   
    27    10    31 1   
    28    11    12 1   
    29    11    32 1   
    30    11    33 1   
    31    12    13 1   
    32    12    34 1   
    33    12    35 1   
    34    13    14 2   
    35    13    36 1   
    36    14    37 1   
    37    14    38 1   
@<TRIPOS>SUBSTRUCTURE
     1 2TD         1 TEMP              0 ****  ****    0 ROOT
