@<TRIPOS>MOLECULE
2TD
   38    37     1     0     0
SMALL
No Charge or Current Charge


@<TRIPOS>ATOM
      1 O1          -5.9760    -1.4800    -0.0210 o          1 2TD      -0.520100
      2 C2          -5.9300    -0.2560    -0.0640 c          1 2TD       0.570100
      3 C1          -7.2030     0.5840    -0.1400 c3         1 2TD      -0.202100
      4 C3          -4.6040     0.5240    -0.0440 c3         1 2TD      -0.183400
      5 C4          -3.3150    -0.3330     0.0030 c3         1 2TD      -0.065400
      6 C5          -2.0280     0.5210     0.0190 c3         1 2TD      -0.076400
      7 C6          -0.7390    -0.3290     0.0650 c3         1 2TD      -0.074400
      8 C7           0.5470     0.5260     0.0810 c3         1 2TD      -0.074400
      9 C8           1.8360    -0.3230     0.1270 c3         1 2TD      -0.074400
     10 C9           3.1230     0.5310     0.1430 c3         1 2TD      -0.075400
     11 C10          4.4120    -0.3180     0.1890 c3         1 2TD      -0.072400
     12 C11          5.6990     0.5340     0.2040 c3         1 2TD      -0.045200
     13 C12          6.9500    -0.3200     0.2460 c2         1 2TD      -0.215200
     14 C13          7.8830    -0.3740    -0.7160 c2         1 2TD      -0.320000
     15 H1          -8.1140    -0.0250    -0.1460 hc         1 2TD       0.059700
     16 H1A         -7.2020     1.3060     0.6850 hc         1 2TD       0.059700
     17 H1B         -7.1460     1.2370    -1.0180 hc         1 2TD       0.059700
     18 H3          -4.6090     1.2100    -0.8990 hc         1 2TD       0.058200
     19 H3A         -4.6510     1.2360     0.7890 hc         1 2TD       0.058200
     20 H4          -3.3360    -0.9700     0.8960 hc         1 2TD       0.052200
     21 H4A         -3.2930    -1.0010    -0.8680 hc         1 2TD       0.052200
     22 H5          -2.0080     1.1580    -0.8750 hc         1 2TD       0.035700
     23 H5A         -2.0510     1.1900     0.8880 hc         1 2TD       0.035700
     24 H6          -0.7600    -0.9650     0.9590 hc         1 2TD       0.039700
     25 H6A         -0.7170    -0.9970    -0.8040 hc         1 2TD       0.039700
     26 H7           0.5670     1.1630    -0.8130 hc         1 2TD       0.036700
     27 H7A          0.5250     1.1950     0.9510 hc         1 2TD       0.036700
     28 H8           1.8160    -0.9600     1.0210 hc         1 2TD       0.038200
     29 H8A          1.8580    -0.9920    -0.7420 hc         1 2TD       0.038200
     30 H9           3.1420     1.1680    -0.7510 hc         1 2TD       0.037200
     31 H9A          3.1000     1.2000     1.0120 hc         1 2TD       0.037200
     32 H10          4.3930    -0.9550     1.0820 hc         1 2TD       0.040200
     33 H10A         4.4360    -0.9860    -0.6810 hc         1 2TD       0.040200
     34 H11          5.7090     1.1790    -0.6830 hc         1 2TD       0.043700
     35 H11A         5.6790     1.2020     1.0740 hc         1 2TD       0.043700
     36 H12          7.0580    -0.9180     1.1550 ha         1 2TD       0.164000
     37 H13          8.7650    -1.0100    -0.6210 ha         1 2TD       0.160500
     38 H13A         7.8010     0.2130    -1.6320 ha         1 2TD       0.160500
@<TRIPOS>BOND
     1     1     2 2   
     2     2     3 1   
     3     2     4 1   
     4     3    15 1   
     5     3    16 1   
     6     3    17 1   
     7     4     5 1   
     8     4    18 1   
     9     4    19 1   
    10     5     6 1   
    11     5    20 1   
    12     5    21 1   
    13     6     7 1   
    14     6    22 1   
    15     6    23 1   
    16     7     8 1   
    17     7    24 1   
    18     7    25 1   
    19     8     9 1   
    20     8    26 1   
    21     8    27 1   
    22     9    10 1   
    23     9    28 1   
    24     9    29 1   
    25    10    11 1   
    26    10    30 1   
    27    10    31 1   
    28    11    12 1   
    29    11    32 1   
    30    11    33 1   
    31    12    13 1   
    32    12    34 1   
    33    12    35 1   
    34    13    14 2   
    35    13    36 1   
    36    14    37 1   
    37    14    38 1   
@<TRIPOS>SUBSTRUCTURE
     1 2TD         1 TEMP              0 ****  ****    0 ROOT
