@<TRIPOS>MOLECULE
2TE
   60    62     1     0     0
SMALL
bcc


@<TRIPOS>ATOM
      1 C23         -9.3790     1.7960     1.4930 c3         1 2TE      -0.008000
      2 C22         -8.0200     1.2820     1.4190 c1         1 2TE      -0.100100
      3 C21         -6.8990     0.8520     1.3490 c1         1 2TE      -0.162100
      4 C20         -5.5330     0.3460     1.3230 c3         1 2TE      -0.009300
      5 C12         -4.9730     0.0660    -0.0900 c3         1 2TE       0.166100
      6 C24         -5.6900    -1.1260    -0.7400 c3         1 2TE       0.678900
      7 F2          -6.9970    -0.9150    -0.9080 f          1 2TE      -0.228967
      8 F3          -5.1840    -1.4020    -1.9460 f          1 2TE      -0.228967
      9 F1          -5.5610    -2.2290     0.0060 f          1 2TE      -0.228967
     10 O3          -5.2440     1.1320    -0.9520 oh         1 2TE      -0.570800
     11 C9          -3.4860    -0.2540    -0.0210 ca         1 2TE      -0.185300
     12 C10         -2.9260    -0.9780     1.0320 ca         1 2TE      -0.067500
     13 C11         -1.5750    -1.2620     1.0760 ca         1 2TE      -0.187000
     14 C8          -2.6280     0.1600    -1.0320 ca         1 2TE      -0.067500
     15 C7          -1.2680    -0.1090    -0.9920 ca         1 2TE      -0.187000
     16 C6          -0.7050    -0.8330     0.0640 ca         1 2TE       0.184600
     17 N1           0.6430    -1.1710     0.1120 nh         1 2TE      -0.651000
     18 C2           1.4860    -0.8750    -1.0330 c6         1 2TE       0.287600
     19 C3           2.6850    -1.8270    -1.0340 c6         1 2TE       0.239800
     20 C13          1.8970     0.5350    -1.0890 c1         1 2TE      -0.193100
     21 C14          2.1920     1.7010    -1.1480 c1         1 2TE      -0.103100
     22 C15          2.5270     3.1120    -1.2340 c3         1 2TE      -0.012000
     23 C1           1.3590    -1.0610     1.3750 c6         1 2TE       0.187800
     24 C4           2.5370    -2.0140     1.3980 c6         1 2TE       0.229800
     25 N2           3.3800    -1.7970     0.2340 n3         1 2TE      -0.797500
     26 S1           4.9920    -1.5370     0.3320 sy         1 2TE       1.365200
     27 O1           5.4070    -2.0010     1.6480 o          1 2TE      -0.617300
     28 O2           5.6020    -2.1060    -0.8600 o          1 2TE      -0.617300
     29 C5           5.2570     0.1950     0.2790 ca         1 2TE      -0.493800
     30 C19          5.0180     0.9810     1.4120 ca         1 2TE       0.050000
     31 C18          5.2170     2.3320     1.3360 ca         1 2TE      -0.348300
     32 C17          5.6600     2.8850     0.1130 ca         1 2TE       0.731200
     33 N4           5.8900     4.2030    -0.0020 nv         1 2TE      -0.964500
     34 N3           5.8850     2.1270    -0.9640 nb         1 2TE      -0.776000
     35 C16          5.6840     0.8230    -0.8770 ca         1 2TE       0.569200
     36 H23        -10.1070     1.0180     1.2630 hc         1 2TE       0.053033
     37 H23A        -9.6010     2.1750     2.4910 hc         1 2TE       0.053033
     38 H23B        -9.5310     2.6130     0.7860 hc         1 2TE       0.053033
     39 H20         -4.8730     1.0880     1.7840 hc         1 2TE       0.070700
     40 H20A        -5.4630    -0.5390     1.9560 hc         1 2TE       0.070700
     41 HO3         -4.8180     1.9260    -0.6080 ho         1 2TE       0.423000
     42 H10         -3.5360    -1.3480     1.8450 ha         1 2TE       0.139000
     43 H11         -1.2080    -1.8500     1.9060 ha         1 2TE       0.138000
     44 H8          -3.0070     0.7240    -1.8750 ha         1 2TE       0.139000
     45 H7          -0.6580     0.2730    -1.7980 ha         1 2TE       0.138000
     46 H2           0.9270    -1.1130    -1.9420 h1         1 2TE       0.085700
     47 H3           2.3140    -2.8410    -1.2180 h1         1 2TE       0.070200
     48 H3A          3.3520    -1.5710    -1.8530 h1         1 2TE       0.070200
     49 H15          3.3710     3.2730    -1.9050 hc         1 2TE       0.054700
     50 H15A         1.6830     3.6920    -1.6090 hc         1 2TE       0.054700
     51 H15B         2.7990     3.5120    -0.2570 hc         1 2TE       0.054700
     52 H1           1.7040    -0.0320     1.5360 h1         1 2TE       0.049200
     53 H1A          0.7040    -1.3120     2.2050 h1         1 2TE       0.049200
     54 H4           3.1050    -1.8710     2.3140 h1         1 2TE       0.068700
     55 H4A          2.1750    -3.0470     1.3890 h1         1 2TE       0.068700
     56 H19          4.6870     0.5420     2.3440 ha         1 2TE       0.146000
     57 H18          5.0470     2.9680     2.1940 ha         1 2TE       0.141000
     58 HN4          5.6120     4.8390     0.7240 hn         1 2TE       0.441300
     59 HN4A         6.0890     4.5930    -0.9070 hn         1 2TE       0.441300
     60 H16          5.8840     0.2510    -1.7760 h4         1 2TE       0.042100
@<TRIPOS>BOND
     1     1     2 1   
     2     1    36 1   
     3     1    37 1   
     4     1    38 1   
     5     2     3 3   
     6     3     4 1   
     7     4     5 1   
     8     4    39 1   
     9     4    40 1   
    10     5     6 1   
    11     5    10 1   
    12     5    11 1   
    13     6     7 1   
    14     6     8 1   
    15     6     9 1   
    16    10    41 1   
    17    11    12 ar  
    18    11    14 ar  
    19    12    13 ar  
    20    12    42 1   
    21    13    16 ar  
    22    13    43 1   
    23    14    15 ar  
    24    14    44 1   
    25    15    16 ar  
    26    15    45 1   
    27    16    17 1   
    28    17    18 1   
    29    17    23 1   
    30    18    19 1   
    31    18    20 1   
    32    18    46 1   
    33    19    25 1   
    34    19    47 1   
    35    19    48 1   
    36    20    21 3   
    37    21    22 1   
    38    22    49 1   
    39    22    50 1   
    40    22    51 1   
    41    23    24 1   
    42    23    52 1   
    43    23    53 1   
    44    24    25 1   
    45    24    54 1   
    46    24    55 1   
    47    25    26 1   
    48    26    27 2   
    49    26    28 2   
    50    26    29 1   
    51    29    30 ar  
    52    29    35 ar  
    53    30    31 ar  
    54    30    56 1   
    55    31    32 ar  
    56    31    57 1   
    57    32    33 1   
    58    32    34 ar  
    59    33    58 1   
    60    33    59 1   
    61    34    35 ar  
    62    35    60 1   
@<TRIPOS>SUBSTRUCTURE
     1 2TE         1 TEMP              0 ****  ****    0 ROOT
