@<TRIPOS>MOLECULE
2TE
   60    62     1     0     0
SMALL
No Charge or Current Charge


@<TRIPOS>ATOM
      1 C23        -10.2740    -0.2820     0.6930 c3         1 2TE      -0.008000
      2 C22         -8.8180    -0.4380     0.7720 c1         1 2TE      -0.100100
      3 C21         -7.6160    -0.5630     0.8070 c1         1 2TE      -0.162100
      4 C20         -6.1520    -0.7490     0.8370 c3         1 2TE      -0.009300
      5 C12         -5.3370    -0.0350    -0.3040 c3         1 2TE       0.189300
      6 C24         -5.5710    -0.7160    -1.7140 c3         1 2TE       0.315000
      7 F2          -6.8690    -0.6700    -2.0990 f          1 2TE      -0.107667
      8 F3          -4.8480    -0.1060    -2.6840 f          1 2TE      -0.107667
      9 F1          -5.1990    -2.0180    -1.6940 f          1 2TE      -0.107667
     10 O3          -5.7800     1.3390    -0.3470 oh         1 2TE      -0.633000
     11 C9          -3.8160    -0.0210     0.0110 ca         1 2TE      -0.185300
     12 C10         -3.1980    -1.0460     0.7690 ca         1 2TE      -0.049500
     13 C11         -1.8170    -1.0200     1.0240 ca         1 2TE      -0.169000
     14 C8          -2.9880     1.0050    -0.5040 ca         1 2TE      -0.049500
     15 C7          -1.6080     1.0220    -0.2450 ca         1 2TE      -0.169000
     16 C6          -1.0060     0.0150     0.5300 ca         1 2TE       0.323000
     17 N1           0.3850     0.0160     0.7920 nh         1 2TE      -0.789400
     18 C2           1.3940     0.5520    -0.1780 c6         1 2TE       0.287600
     19 C3           2.7060    -0.3120    -0.1770 c6         1 2TE       0.239800
     20 C13          1.7050     1.9800     0.0670 c1         1 2TE      -0.193100
     21 C14          1.9990     3.1340     0.2780 c1         1 2TE      -0.103100
     22 C15          2.3870     4.5210     0.5520 c3         1 2TE      -0.012000
     23 C1           0.9450    -0.2660     2.1550 c6         1 2TE       0.187800
     24 C4           2.2580    -1.1110     2.1000 c6         1 2TE       0.229800
     25 N2           3.2830    -0.5220     1.1910 n3         1 2TE      -0.797500
     26 S1           4.7790    -1.3090     1.2270 sy         1 2TE       1.223600
     27 O1           5.2890    -1.1250     2.5890 o          1 2TE      -0.546500
     28 O2           4.5970    -2.6340     0.6300 o          1 2TE      -0.546500
     29 C5           5.7500    -0.2810     0.1690 ca         1 2TE      -0.428500
     30 C19          5.9420     1.0770     0.4610 ca         1 2TE       0.068000
     31 C18          6.7170     1.8160    -0.4390 ca         1 2TE      -0.265000
     32 C17          7.2420     1.1560    -1.5460 ca         1 2TE       0.665900
     33 N4           7.9840     1.7500    -2.4750 nv         1 2TE      -1.074900
     34 N3           7.0670    -0.1220    -1.8360 nb         1 2TE      -0.776000
     35 C16          6.3190    -0.8450    -0.9730 ca         1 2TE       0.503900
     36 H23        -10.7510    -1.2490     0.4960 hc         1 2TE       0.053033
     37 H23A       -10.6660     0.1170     1.6360 hc         1 2TE       0.053033
     38 H23B       -10.5390     0.4090    -0.1160 hc         1 2TE       0.053033
     39 H20         -5.7930    -0.3920     1.8100 hc         1 2TE       0.070700
     40 H20A        -5.9610    -1.8280     0.8140 hc         1 2TE       0.070700
     41 HO3         -5.5840     1.7230     0.5340 ho         1 2TE       0.462000
     42 H10         -3.7700    -1.8830     1.1600 ha         1 2TE       0.121000
     43 H11         -1.3730    -1.8290     1.5960 ha         1 2TE       0.120000
     44 H8          -3.4080     1.7990    -1.1180 ha         1 2TE       0.121000
     45 H7          -1.0110     1.8330    -0.6480 ha         1 2TE       0.120000
     46 H2           0.9860     0.5110    -1.2000 h1         1 2TE       0.085700
     47 H3           2.4670    -1.2840    -0.6340 h1         1 2TE       0.070200
     48 H3A          3.4280     0.1750    -0.8470 h1         1 2TE       0.070200
     49 H15          3.4760     4.6320     0.4830 hc         1 2TE       0.054700
     50 H15A         1.9200     5.1980    -0.1730 hc         1 2TE       0.054700
     51 H15B         2.0690     4.8130     1.5590 hc         1 2TE       0.054700
     52 H1           1.1640     0.6850     2.6620 h1         1 2TE       0.049200
     53 H1A          0.2160    -0.7940     2.7840 h1         1 2TE       0.049200
     54 H4           2.6490    -1.1940     3.1250 h1         1 2TE       0.068700
     55 H4A          1.9990    -2.1300     1.7750 h1         1 2TE       0.068700
     56 H19          5.5020     1.5420     1.3430 ha         1 2TE       0.128000
     57 H18          6.9050     2.8730    -0.2770 ha         1 2TE       0.123000
     58 HN4          7.8610     2.7500    -2.5810 hn         1 2TE       0.496500
     59 HN4A         8.0790     1.2190    -3.3310 hn         1 2TE       0.496500
     60 H16          6.1840    -1.8970    -1.2230 h4         1 2TE       0.042100
@<TRIPOS>BOND
     1     1     2 1   
     2     1    36 1   
     3     1    37 1   
     4     1    38 1   
     5     2     3 3   
     6     3     4 1   
     7     4     5 1   
     8     4    39 1   
     9     4    40 1   
    10     5     6 1   
    11     5    10 1   
    12     5    11 1   
    13     6     7 1   
    14     6     8 1   
    15     6     9 1   
    16    10    41 1   
    17    11    12 ar  
    18    11    14 ar  
    19    12    13 ar  
    20    12    42 1   
    21    13    16 ar  
    22    13    43 1   
    23    14    15 ar  
    24    14    44 1   
    25    15    16 ar  
    26    15    45 1   
    27    16    17 1   
    28    17    18 1   
    29    17    23 1   
    30    18    19 1   
    31    18    20 1   
    32    18    46 1   
    33    19    25 1   
    34    19    47 1   
    35    19    48 1   
    36    20    21 3   
    37    21    22 1   
    38    22    49 1   
    39    22    50 1   
    40    22    51 1   
    41    23    24 1   
    42    23    52 1   
    43    23    53 1   
    44    24    25 1   
    45    24    54 1   
    46    24    55 1   
    47    25    26 1   
    48    26    27 2   
    49    26    28 2   
    50    26    29 1   
    51    29    30 ar  
    52    29    35 ar  
    53    30    31 ar  
    54    30    56 1   
    55    31    32 ar  
    56    31    57 1   
    57    32    33 1   
    58    32    34 ar  
    59    33    58 1   
    60    33    59 1   
    61    34    35 ar  
    62    35    60 1   
@<TRIPOS>SUBSTRUCTURE
     1 2TE         1 TEMP              0 ****  ****    0 ROOT
