@<TRIPOS>MOLECULE
2TF
   56    58     1     0     0
SMALL
abcg2


@<TRIPOS>ATOM
      1 C19         -5.5710     1.1880     1.1290 ca         1 2TF       0.066000
      2 C18         -6.0830     2.3990     0.7530 ca         1 2TF      -0.266000
      3 C17         -6.3500     2.6290    -0.6170 ca         1 2TF       0.676900
      4 N4          -6.8380     3.8020    -1.0350 nv         1 2TF      -1.073900
      5 N3          -6.1250     1.6930    -1.5480 nb         1 2TF      -0.776000
      6 C16         -5.6300     0.5290    -1.1700 ca         1 2TF       0.498900
      7 C5          -5.3310     0.2170     0.1480 ca         1 2TF      -0.458500
      8 S1          -4.6250    -1.3290     0.5670 sy         1 2TF       1.172600
      9 O1          -4.9640    -1.6240     1.9490 o          1 2TF      -0.537500
     10 O2          -4.9630    -2.2830    -0.4770 o          1 2TF      -0.537500
     11 N2          -2.9750    -1.1440     0.5200 n3         1 2TF      -0.698500
     12 C3          -2.3850    -0.9110    -0.7880 c6         1 2TF       0.187800
     13 C2          -0.8850    -1.1960    -0.7270 c6         1 2TF       0.311600
     14 C13         -0.6200    -2.6270    -0.5230 c1         1 2TF      -0.189100
     15 C14         -0.3840    -3.7930    -0.3390 c1         1 2TF      -0.094100
     16 C15         -0.1060    -5.2020    -0.1080 c3         1 2TF      -0.011000
     17 C4          -2.3830    -0.2740     1.5310 c6         1 2TF       0.180800
     18 C1          -0.8910    -0.5350     1.5970 c6         1 2TF       0.204800
     19 N1          -0.2710    -0.3630     0.2920 nh         1 2TF      -0.788400
     20 C6           1.1000    -0.1310     0.2210 ca         1 2TF       0.324000
     21 C11          1.8990    -0.6490    -0.8050 ca         1 2TF      -0.170000
     22 C10          3.2530    -0.3590    -0.8800 ca         1 2TF      -0.049500
     23 C7           1.7400     0.6830     1.1670 ca         1 2TF      -0.170000
     24 C8           3.0930     0.9540     1.0890 ca         1 2TF      -0.049500
     25 C9           3.8870     0.4330     0.0670 ca         1 2TF      -0.184300
     26 C12          5.3840     0.7070    -0.0290 c3         1 2TF       0.186300
     27 C21          5.5880     2.1390    -0.5500 c3         1 2TF       0.321000
     28 F2           6.8590     2.4200    -0.8390 f          1 2TF      -0.107000
     29 F3           4.8880     2.3450    -1.6720 f          1 2TF      -0.107000
     30 F1           5.1760     3.0470     0.3440 f          1 2TF      -0.107000
     31 O3           6.0040    -0.0840    -1.0030 oh         1 2TF      -0.627000
     32 C20          6.0280     0.4880     1.3460 c3         1 2TF       0.133600
     33 O4           7.4060     0.7340     1.2810 oh         1 2TF      -0.639000
     34 H1          -5.3680     0.9910     2.1740 ha         1 2TF       0.134000
     35 H2          -6.2870     3.1680     1.4860 ha         1 2TF       0.125000
     36 H3          -7.0860     4.5280    -0.3870 hn         1 2TF       0.502500
     37 H4          -7.0660     3.9370    -2.0050 hn         1 2TF       0.502500
     38 H5          -5.4760    -0.1990    -1.9600 h4         1 2TF       0.038100
     39 H6          -2.8320    -1.5660    -1.5320 h1         1 2TF       0.068200
     40 H7          -2.5250     0.1290    -1.1110 h1         1 2TF       0.068200
     41 H8          -0.4990    -0.8940    -1.7030 h1         1 2TF       0.080700
     42 H9           0.9450    -5.3590     0.1360 hc         1 2TF       0.055033
     43 H10         -0.7030    -5.5880     0.7180 hc         1 2TF       0.055033
     44 H11         -0.3360    -5.7960    -0.9930 hc         1 2TF       0.055033
     45 H12         -2.5610     0.7830     1.2960 h1         1 2TF       0.062200
     46 H13         -2.8080    -0.4900     2.5090 h1         1 2TF       0.062200
     47 H14         -0.4750     0.1680     2.3120 h1         1 2TF       0.055200
     48 H15         -0.7100    -1.5440     1.9860 h1         1 2TF       0.055200
     49 H16          1.4880    -1.3000    -1.5630 ha         1 2TF       0.119500
     50 H17          3.8120    -0.7850    -1.7020 ha         1 2TF       0.120000
     51 H18          1.1830     1.1400     1.9720 ha         1 2TF       0.119500
     52 H19          3.5120     1.5930     1.8540 ha         1 2TF       0.120000
     53 H20          5.9960    -1.0020    -0.7110 ho         1 2TF       0.460000
     54 H21          5.5380     1.1140     2.0990 h1         1 2TF       0.034200
     55 H22          5.8080    -0.5520     1.6250 h1         1 2TF       0.034200
     56 H23          7.7790     0.5280     2.1430 ho         1 2TF       0.450000
@<TRIPOS>BOND
     1     1     2 ar  
     2     1     7 ar  
     3     1    34 1   
     4     2     3 ar  
     5     2    35 1   
     6     3     4 1   
     7     3     5 ar  
     8     4    36 1   
     9     4    37 1   
    10     5     6 ar  
    11     6     7 ar  
    12     6    38 1   
    13     7     8 1   
    14     8     9 2   
    15     8    10 2   
    16     8    11 1   
    17    11    12 1   
    18    11    17 1   
    19    12    13 1   
    20    12    39 1   
    21    12    40 1   
    22    13    14 1   
    23    13    19 1   
    24    13    41 1   
    25    14    15 3   
    26    15    16 1   
    27    16    42 1   
    28    16    43 1   
    29    16    44 1   
    30    17    18 1   
    31    17    45 1   
    32    17    46 1   
    33    18    19 1   
    34    18    47 1   
    35    18    48 1   
    36    19    20 1   
    37    20    21 ar  
    38    20    23 ar  
    39    21    22 ar  
    40    21    49 1   
    41    22    25 ar  
    42    22    50 1   
    43    23    24 ar  
    44    23    51 1   
    45    24    25 ar  
    46    24    52 1   
    47    25    26 1   
    48    26    27 1   
    49    26    31 1   
    50    26    32 1   
    51    27    28 1   
    52    27    29 1   
    53    27    30 1   
    54    31    53 1   
    55    32    33 1   
    56    32    54 1   
    57    32    55 1   
    58    33    56 1   
@<TRIPOS>SUBSTRUCTURE
     1 2TF         1 TEMP              0 ****  ****    0 ROOT
