@<TRIPOS>MOLECULE
2TF
   56    58     1     0     0
SMALL
No Charge or Current Charge


@<TRIPOS>ATOM
      1 C19         -5.7090     0.1180     0.7230 ca         1 2TF       0.066000
      2 C18         -6.4550     0.8840     1.6260 ca         1 2TF      -0.266000
      3 C17         -6.4330     2.2680     1.4840 ca         1 2TF       0.676900
      4 N4          -7.1110     3.1010     2.2670 nv         1 2TF      -1.073900
      5 N3          -5.7650     2.9370     0.5610 nb         1 2TF      -0.776000
      6 C16         -5.0410     2.2070    -0.3140 ca         1 2TF       0.498900
      7 C5          -4.9920     0.8140    -0.2620 ca         1 2TF      -0.458500
      8 S1          -4.0190    -0.0460    -1.4650 sy         1 2TF       1.172600
      9 O1          -4.7850    -1.2280    -1.8710 o          1 2TF      -0.537500
     10 O2          -3.4710     0.9050    -2.4350 o          1 2TF      -0.537500
     11 N2          -2.7230    -0.6320    -0.5380 n3         1 2TF      -0.698500
     12 C3          -1.6980    -1.3660    -1.3430 c6         1 2TF       0.187800
     13 C2          -0.5670    -2.0350    -0.4860 c6         1 2TF       0.311600
     14 C13         -1.0490    -3.2550     0.2000 c1         1 2TF      -0.189100
     15 C14         -1.4560    -4.2670     0.7240 c1         1 2TF      -0.094100
     16 C15         -1.9780    -5.4750     1.3710 c3         1 2TF      -0.011000
     17 C4          -2.0680     0.3560     0.3690 c6         1 2TF       0.180800
     18 C1          -0.9660    -0.2910     1.2650 c6         1 2TF       0.204800
     19 N1           0.0430    -1.0630     0.4700 nh         1 2TF      -0.788400
     20 C6           1.3690    -0.6120     0.2930 ca         1 2TF       0.324000
     21 C11          2.4110    -1.5430     0.1620 ca         1 2TF      -0.170000
     22 C10          3.7380    -1.1190    -0.0220 ca         1 2TF      -0.049500
     23 C7           1.6760     0.7580     0.2250 ca         1 2TF      -0.170000
     24 C8           3.0000     1.1910     0.0410 ca         1 2TF      -0.049500
     25 C9           4.0570     0.2590    -0.0720 ca         1 2TF      -0.184300
     26 C12          5.5170     0.7300    -0.2970 c3         1 2TF       0.186300
     27 C21          5.7930     0.8970    -1.8420 c3         1 2TF       0.321000
     28 F2           7.0830     1.2230    -2.0990 f          1 2TF      -0.107000
     29 F3           5.5290    -0.2490    -2.5140 f          1 2TF      -0.107000
     30 F1           5.0140     1.8670    -2.3770 f          1 2TF      -0.107000
     31 O3           6.4160    -0.2450     0.2640 oh         1 2TF      -0.627000
     32 C20          5.8190     2.0490     0.4940 c3         1 2TF       0.133600
     33 O4           7.2400     2.2630     0.6260 oh         1 2TF      -0.639000
     34 H1          -5.6890    -0.9690     0.7880 ha         1 2TF       0.134000
     35 H2          -7.0330     0.4130     2.4150 ha         1 2TF       0.125000
     36 H3          -7.9390     2.7260     2.7150 hn         1 2TF       0.502500
     37 H4          -7.1980     4.0370     1.8920 hn         1 2TF       0.502500
     38 H5          -4.4930     2.7750    -1.0670 h4         1 2TF       0.038100
     39 H6          -2.1720    -2.1460    -1.9570 h1         1 2TF       0.068200
     40 H7          -1.2130    -0.6710    -2.0450 h1         1 2TF       0.068200
     41 H8           0.1970    -2.3960    -1.1910 h1         1 2TF       0.080700
     42 H9          -1.3230    -5.7750     2.1980 hc         1 2TF       0.055033
     43 H10         -2.9830    -5.2910     1.7700 hc         1 2TF       0.055033
     44 H11         -2.0330    -6.3010     0.6520 hc         1 2TF       0.055033
     45 H12         -1.6100     1.1640    -0.2190 h1         1 2TF       0.062200
     46 H13         -2.8000     0.8230     1.0420 h1         1 2TF       0.062200
     47 H14         -0.4800     0.4920     1.8650 h1         1 2TF       0.055200
     48 H15         -1.4520    -0.9650     1.9850 h1         1 2TF       0.055200
     49 H16          2.1930    -2.6050     0.2100 ha         1 2TF       0.119500
     50 H17          4.5160    -1.8720    -0.1280 ha         1 2TF       0.120000
     51 H18          0.8870     1.5000     0.2940 ha         1 2TF       0.119500
     52 H19          3.1880     2.2600    -0.0250 ha         1 2TF       0.120000
     53 H20          7.1850     0.2990     0.5550 ho         1 2TF       0.460000
     54 H21          5.3570     2.9040    -0.0170 h1         1 2TF       0.034200
     55 H22          5.3630     1.9790     1.4910 h1         1 2TF       0.034200
     56 H23          7.3650     3.1250     1.0830 ho         1 2TF       0.450000
@<TRIPOS>BOND
     1     1     2 ar  
     2     1     7 ar  
     3     1    34 1   
     4     2     3 ar  
     5     2    35 1   
     6     3     4 1   
     7     3     5 ar  
     8     4    36 1   
     9     4    37 1   
    10     5     6 ar  
    11     6     7 ar  
    12     6    38 1   
    13     7     8 1   
    14     8     9 2   
    15     8    10 2   
    16     8    11 1   
    17    11    12 1   
    18    11    17 1   
    19    12    13 1   
    20    12    39 1   
    21    12    40 1   
    22    13    14 1   
    23    13    19 1   
    24    13    41 1   
    25    14    15 3   
    26    15    16 1   
    27    16    42 1   
    28    16    43 1   
    29    16    44 1   
    30    17    18 1   
    31    17    45 1   
    32    17    46 1   
    33    18    19 1   
    34    18    47 1   
    35    18    48 1   
    36    19    20 1   
    37    20    21 ar  
    38    20    23 ar  
    39    21    22 ar  
    40    21    49 1   
    41    22    25 ar  
    42    22    50 1   
    43    23    24 ar  
    44    23    51 1   
    45    24    25 ar  
    46    24    52 1   
    47    25    26 1   
    48    26    27 1   
    49    26    31 1   
    50    26    32 1   
    51    27    28 1   
    52    27    29 1   
    53    27    30 1   
    54    31    53 1   
    55    32    33 1   
    56    32    54 1   
    57    32    55 1   
    58    33    56 1   
@<TRIPOS>SUBSTRUCTURE
     1 2TF         1 TEMP              0 ****  ****    0 ROOT
