@<TRIPOS>MOLECULE
2TG
   52    54     1     0     0
SMALL
No Charge or Current Charge


@<TRIPOS>ATOM
      1 C19         44.3880   -21.7970   -14.6160 ca         1 2TG       0.065000
      2 C18         45.6370   -21.7160   -15.2390 ca         1 2TG      -0.259000
      3 C17         46.3120   -20.4990   -15.1970 ca         1 2TG       0.666900
      4 N4          47.5080   -20.3010   -15.7420 nv         1 2TG      -1.069900
      5 N3          45.8790   -19.3980   -14.6080 nb         1 2TG      -0.769000
      6 C16         44.6720   -19.4650   -14.0040 ca         1 2TG       0.493900
      7 C15         43.9120   -20.6340   -13.9920 ca         1 2TG      -0.463500
      8 S2          42.3430   -20.6170   -13.1780 sy         1 2TG       1.203600
      9 O2          42.0790   -19.2920   -12.6100 o          1 2TG      -0.541500
     10 O3          42.2620   -21.8430   -12.3780 o          1 2TG      -0.541500
     11 N2          41.2720   -20.8410   -14.4740 n3         1 2TG      -0.715500
     12 C3          39.8370   -20.9270   -14.0670 c6         1 2TG       0.189800
     13 C2          38.8630   -21.2800   -15.2450 c6         1 2TG       0.323600
     14 C5          38.9530   -22.7100   -15.6170 c1         1 2TG      -0.202100
     15 C6          39.0400   -23.8660   -15.9620 c1         1 2TG      -0.071100
     16 C7          39.1640   -25.2560   -16.4090 c3         1 2TG      -0.015000
     17 C4          41.4290   -19.8900   -15.6120 c6         1 2TG       0.184800
     18 C1          40.5090   -20.2460   -16.8190 c6         1 2TG       0.207800
     19 N1          39.0680   -20.3900   -16.4290 nh         1 2TG      -0.791400
     20 C8          38.0450   -20.2730   -17.3930 ca         1 2TG       0.395000
     21 C13         38.2600   -20.6320   -18.7360 ca         1 2TG      -0.205000
     22 C12         37.2280   -20.5180   -19.6810 ca         1 2TG       0.046500
     23 C9          36.7820   -19.7960   -17.0080 ca         1 2TG      -0.205000
     24 C10         35.7430   -19.6760   -17.9440 ca         1 2TG       0.046500
     25 C11         35.9670   -20.0350   -19.2860 ca         1 2TG      -0.278500
     26 S1          34.6370   -19.9050   -20.4920 sy         1 2TG       0.811000
     27 C14         33.8240   -21.5600   -20.4940 c3         1 2TG       0.111000
     28 F2          32.7800   -21.5980   -21.3570 f          1 2TG      -0.111667
     29 F3          33.3480   -21.8710   -19.2640 f          1 2TG      -0.111667
     30 F1          34.6900   -22.5380   -20.8530 f          1 2TG      -0.111667
     31 O1          33.6600   -18.9380   -19.9790 o          1 2TG      -0.483000
     32 N5          35.1830   -19.7610   -21.9250 n2         1 2TG      -0.729900
     33 H1          43.8120   -22.7220   -14.6230 ha         1 2TG       0.134000
     34 H2          46.0670   -22.5750   -15.7440 ha         1 2TG       0.127000
     35 H3          47.9660   -19.4600   -15.4130 hn         1 2TG       0.500000
     36 H4          48.1020   -21.1140   -15.8540 hn         1 2TG       0.500000
     37 H5          44.3270   -18.5480   -13.5260 h4         1 2TG       0.038100
     38 H6          39.7020   -21.6750   -13.2720 h1         1 2TG       0.069700
     39 H7          39.5130   -19.9640   -13.6450 h1         1 2TG       0.069700
     40 H8          37.8410   -21.1520   -14.8560 h1         1 2TG       0.078700
     41 H9          38.8430   -25.3500   -17.4530 hc         1 2TG       0.059033
     42 H10         40.2050   -25.5890   -16.3320 hc         1 2TG       0.059033
     43 H11         38.5400   -25.9120   -15.7910 hc         1 2TG       0.059033
     44 H12         41.1940   -18.8660   -15.2860 h1         1 2TG       0.064700
     45 H13         42.4650   -19.8780   -15.9800 h1         1 2TG       0.064700
     46 H14         40.6200   -19.4590   -17.5790 h1         1 2TG       0.061200
     47 H15         40.8710   -21.1840   -17.2650 h1         1 2TG       0.061200
     48 H16         39.2230   -21.0190   -19.0530 ha         1 2TG       0.124000
     49 H17         37.4130   -20.8100   -20.7140 ha         1 2TG       0.143500
     50 H18         36.6070   -19.5070   -15.9760 ha         1 2TG       0.124000
     51 H19         34.7710   -19.3050   -17.6200 ha         1 2TG       0.143500
     52 H21         34.7310   -18.9350   -22.3350 hn         1 2TG       0.448400
@<TRIPOS>BOND
     1     1     2 ar  
     2     1     7 ar  
     3     1    33 1   
     4     2     3 ar  
     5     2    34 1   
     6     3     4 1   
     7     3     5 ar  
     8     4    35 1   
     9     4    36 1   
    10     5     6 ar  
    11     6     7 ar  
    12     6    37 1   
    13     7     8 1   
    14     8     9 2   
    15     8    10 2   
    16     8    11 1   
    17    11    12 1   
    18    11    17 1   
    19    12    13 1   
    20    12    38 1   
    21    12    39 1   
    22    13    14 1   
    23    13    19 1   
    24    13    40 1   
    25    14    15 3   
    26    15    16 1   
    27    16    41 1   
    28    16    42 1   
    29    16    43 1   
    30    17    18 1   
    31    17    44 1   
    32    17    45 1   
    33    18    19 1   
    34    18    46 1   
    35    18    47 1   
    36    19    20 1   
    37    20    21 ar  
    38    20    23 ar  
    39    21    22 ar  
    40    21    48 1   
    41    22    25 ar  
    42    22    49 1   
    43    23    24 ar  
    44    23    50 1   
    45    24    25 ar  
    46    24    51 1   
    47    25    26 1   
    48    26    27 1   
    49    26    31 2   
    50    26    32 2   
    51    27    28 1   
    52    27    29 1   
    53    27    30 1   
    54    32    52 1   
@<TRIPOS>SUBSTRUCTURE
     1 2TG         1 TEMP              0 ****  ****    0 ROOT
