@<TRIPOS>MOLECULE
2TG
   52    54     1     0     0
SMALL
abcg2


@<TRIPOS>ATOM
      1 C19         44.9480   -20.9540   -15.1390 ca         1 2TG       0.065000
      2 C18         45.7370   -19.8330   -15.1580 ca         1 2TG      -0.259000
      3 C17         45.4960   -18.8110   -14.2090 ca         1 2TG       0.666900
      4 N4          46.2250   -17.6750   -14.2100 nv         1 2TG      -1.069900
      5 N3          44.5240   -18.9130   -13.2830 nb         1 2TG      -0.769000
      6 C16         43.7670   -20.0040   -13.2770 ca         1 2TG       0.493900
      7 C15         43.9340   -21.0530   -14.1740 ca         1 2TG      -0.463500
      8 S2          42.8420   -22.4220   -14.1520 sy         1 2TG       1.203600
      9 O2          42.2610   -22.5190   -12.8340 o          1 2TG      -0.541500
     10 O3          43.5230   -23.5610   -14.7190 o          1 2TG      -0.541500
     11 N2          41.5940   -22.0730   -15.1810 n3         1 2TG      -0.715500
     12 C3          40.7300   -20.9540   -14.8110 c6         1 2TG       0.189800
     13 C2          39.3930   -21.0620   -15.5490 c6         1 2TG       0.323600
     14 C5          38.5700   -22.1710   -15.0530 c1         1 2TG      -0.202100
     15 C6          37.8950   -23.0930   -14.6770 c1         1 2TG      -0.071100
     16 C7          37.0710   -24.2000   -14.2150 c3         1 2TG      -0.015000
     17 C4          41.8850   -22.0450   -16.6170 c6         1 2TG       0.184800
     18 C1          40.5880   -22.1720   -17.3970 c6         1 2TG       0.207800
     19 N1          39.6090   -21.1560   -17.0030 nh         1 2TG      -0.791400
     20 C8          38.5690   -20.8380   -17.8520 ca         1 2TG       0.395000
     21 C13         38.5700   -21.2440   -19.2070 ca         1 2TG      -0.205000
     22 C12         37.5660   -20.8660   -20.0730 ca         1 2TG       0.046500
     23 C9          37.4650   -20.0710   -17.4100 ca         1 2TG      -0.205000
     24 C10         36.4630   -19.6900   -18.2760 ca         1 2TG       0.046500
     25 C11         36.5120   -20.0730   -19.6170 ca         1 2TG      -0.278500
     26 S1          35.2270   -19.5650   -20.6710 sy         1 2TG       0.811000
     27 C14         33.9560   -20.9540   -20.4820 c3         1 2TG       0.111000
     28 F2          32.8870   -20.6630   -21.2350 f          1 2TG      -0.111667
     29 F3          33.5600   -21.0870   -19.2110 f          1 2TG      -0.111667
     30 F1          34.4610   -22.1210   -20.8930 f          1 2TG      -0.111667
     31 O1          34.5050   -18.4380   -20.1000 o          1 2TG      -0.483000
     32 N5          35.7840   -19.5870   -22.0770 n2         1 2TG      -0.729900
     33 H1          45.1110   -21.7540   -15.8480 ha         1 2TG       0.134000
     34 H2          46.5350   -19.7220   -15.8800 ha         1 2TG       0.127000
     35 H3          46.1140   -17.0250   -13.4490 hn         1 2TG       0.500000
     36 H4          47.0480   -17.5980   -14.7840 hn         1 2TG       0.500000
     37 H5          42.9960   -20.0560   -12.5170 h4         1 2TG       0.038100
     38 H6          40.5420   -20.9690   -13.7420 h1         1 2TG       0.069700
     39 H7          41.1990   -20.0010   -15.0830 h1         1 2TG       0.069700
     40 H8          38.8910   -20.1200   -15.3400 h1         1 2TG       0.078700
     41 H9          36.0220   -24.0410   -14.4760 hc         1 2TG       0.059033
     42 H10         37.3940   -25.1400   -14.6680 hc         1 2TG       0.059033
     43 H11         37.1370   -24.3070   -13.1300 hc         1 2TG       0.059033
     44 H12         42.3890   -21.1090   -16.8840 h1         1 2TG       0.064700
     45 H13         42.5300   -22.8810   -16.8720 h1         1 2TG       0.064700
     46 H14         40.8420   -22.0430   -18.4440 h1         1 2TG       0.061200
     47 H15         40.1690   -23.1760   -17.2650 h1         1 2TG       0.061200
     48 H16         39.3590   -21.8620   -19.6000 ha         1 2TG       0.124000
     49 H17         37.5980   -21.1830   -21.1050 ha         1 2TG       0.143500
     50 H18         37.3810   -19.7550   -16.3840 ha         1 2TG       0.124000
     51 H19         35.6440   -19.0870   -17.9120 ha         1 2TG       0.143500
     52 H21         35.0700   -19.4010   -22.7790 hn         1 2TG       0.448400
@<TRIPOS>BOND
     1     1     2 ar  
     2     1     7 ar  
     3     1    33 1   
     4     2     3 ar  
     5     2    34 1   
     6     3     4 1   
     7     3     5 ar  
     8     4    35 1   
     9     4    36 1   
    10     5     6 ar  
    11     6     7 ar  
    12     6    37 1   
    13     7     8 1   
    14     8     9 2   
    15     8    10 2   
    16     8    11 1   
    17    11    12 1   
    18    11    17 1   
    19    12    13 1   
    20    12    38 1   
    21    12    39 1   
    22    13    14 1   
    23    13    19 1   
    24    13    40 1   
    25    14    15 3   
    26    15    16 1   
    27    16    41 1   
    28    16    42 1   
    29    16    43 1   
    30    17    18 1   
    31    17    44 1   
    32    17    45 1   
    33    18    19 1   
    34    18    46 1   
    35    18    47 1   
    36    19    20 1   
    37    20    21 ar  
    38    20    23 ar  
    39    21    22 ar  
    40    21    48 1   
    41    22    25 ar  
    42    22    49 1   
    43    23    24 ar  
    44    23    50 1   
    45    24    25 ar  
    46    24    51 1   
    47    25    26 1   
    48    26    27 1   
    49    26    31 2   
    50    26    32 2   
    51    27    28 1   
    52    27    29 1   
    53    27    30 1   
    54    32    52 1   
@<TRIPOS>SUBSTRUCTURE
     1 2TG         1 TEMP              0 ****  ****    0 ROOT
