@<TRIPOS>MOLECULE
2TH
   35    38     1     0     0
SMALL
abcg2


@<TRIPOS>ATOM
      1 O1           4.8200    -1.5710    -1.6290 oh         1 2TH      -0.647000
      2 C1           3.7240    -0.7490    -1.2890 c5         1 2TH       0.206600
      3 C2           4.1660     0.4700    -0.5180 ca         1 2TH      -0.164300
      4 C3           4.1080     0.2190     0.8500 ca         1 2TH      -0.066300
      5 C4           4.5180     1.1850     1.7540 ca         1 2TH      -0.099000
      6 C5           4.9860     2.4040     1.2710 ca         1 2TH      -0.096000
      7 C6           5.0410     2.6530    -0.0970 ca         1 2TH      -0.117000
      8 C7           4.6310     1.6810    -1.0040 ca         1 2TH      -0.088000
      9 C8           3.5660    -1.1610     1.1040 c5         1 2TH      -0.055100
     10 C9           2.8940    -1.5090    -0.2400 c5         1 2TH       0.112700
     11 N1           1.5270    -1.0340    -0.2940 ns         1 2TH      -0.505900
     12 C10          0.5020    -1.7630     0.1960 c          1 2TH       0.636700
     13 O2           0.6460    -2.8770     0.6800 o          1 2TH      -0.582100
     14 C11         -0.8350    -1.1550     0.1130 cc         1 2TH      -0.235600
     15 C12         -1.9510    -1.5390     0.8220 cd         1 2TH      -0.051000
     16 C13         -2.9960    -0.6630     0.4460 cd         1 2TH      -0.143000
     17 C14         -2.4570     0.2090    -0.4880 cc         1 2TH      -0.206000
     18 S1          -3.5810     1.3550    -1.0980 ss         1 2TH       0.196000
     19 C15         -4.8040     0.6470    -0.0600 cc         1 2TH      -0.018000
     20 C16         -4.3780    -0.3920     0.6930 cd         1 2TH      -0.043000
     21 CL1         -6.3760     1.3170    -0.0970 cl         1 2TH      -0.147000
     22 N2          -1.1560    -0.0740    -0.6840 na         1 2TH      -0.082000
     23 HO1          5.4430    -1.0500    -2.1460 ho         1 2TH       0.451000
     24 H1           3.1270    -0.4990    -2.1750 h1         1 2TH       0.049700
     25 H4           4.4710     1.0040     2.8210 ha         1 2TH       0.120000
     26 H5           5.3020     3.1700     1.9670 ha         1 2TH       0.115000
     27 H6           5.4010     3.6080    -0.4550 ha         1 2TH       0.115000
     28 H7           4.6670     1.8770    -2.0700 ha         1 2TH       0.112000
     29 H81          2.8680    -1.2120     1.9400 hc         1 2TH       0.074700
     30 H82          4.3780    -1.8610     1.3190 hc         1 2TH       0.074700
     31 H9           2.8900    -2.5790    -0.4440 h1         1 2TH       0.107700
     32 HN1          1.3930    -0.0450    -0.4380 hn         1 2TH       0.307500
     33 H12         -1.9900    -2.3420     1.5400 ha         1 2TH       0.157000
     34 H16         -5.0110    -0.9310     1.3810 ha         1 2TH       0.150000
     35 HN2         -0.5710     0.3450    -1.3890 hn         1 2TH       0.357000
@<TRIPOS>BOND
     1     1     2 1   
     2     1    23 1   
     3     2     3 1   
     4     2    10 1   
     5     2    24 1   
     6     3     4 ar  
     7     3     8 ar  
     8     4     5 ar  
     9     4     9 1   
    10     5     6 ar  
    11     5    25 1   
    12     6     7 ar  
    13     6    26 1   
    14     7     8 ar  
    15     7    27 1   
    16     8    28 1   
    17     9    10 1   
    18     9    29 1   
    19     9    30 1   
    20    10    11 1   
    21    10    31 1   
    22    11    12 1   
    23    11    32 1   
    24    12    13 2   
    25    12    14 1   
    26    14    15 2   
    27    14    22 1   
    28    15    16 1   
    29    15    33 1   
    30    16    17 2   
    31    16    20 1   
    32    17    18 1   
    33    17    22 1   
    34    18    19 1   
    35    19    20 2   
    36    19    21 1   
    37    20    34 1   
    38    22    35 1   
@<TRIPOS>SUBSTRUCTURE
     1 2TH         1 TEMP              0 ****  ****    0 ROOT
