@<TRIPOS>MOLECULE
2TH
   35    38     1     0     0
SMALL
No Charge or Current Charge


@<TRIPOS>ATOM
      1 O1           4.9590    -1.6650    -1.6480 oh         1 2TH      -0.647000
      2 C1           3.7910    -0.9320    -1.2850 c5         1 2TH       0.206600
      3 C2           4.1880     0.3320    -0.5600 ca         1 2TH      -0.164300
      4 C3           4.0470     0.2180     0.8120 ca         1 2TH      -0.066300
      5 C4           4.3680     1.2870     1.6630 ca         1 2TH      -0.099000
      6 C5           4.8360     2.4900     1.0990 ca         1 2TH      -0.096000
      7 C6           4.9760     2.6090    -0.3000 ca         1 2TH      -0.117000
      8 C7           4.6510     1.5250    -1.1390 ca         1 2TH      -0.088000
      9 C8           3.5330    -1.1410     1.2230 c5         1 2TH      -0.055100
     10 C9           2.9520    -1.6640    -0.1520 c5         1 2TH       0.112700
     11 N1           1.6090    -1.0500    -0.2270 ns         1 2TH      -0.505900
     12 C10          0.5220    -1.7850     0.2000 c          1 2TH       0.636700
     13 O2           0.6130    -2.9360     0.6040 o          1 2TH      -0.582100
     14 C11         -0.7600    -1.0460     0.1240 cc         1 2TH      -0.235600
     15 C12         -1.9730    -1.6120     0.5100 cd         1 2TH      -0.051000
     16 C13         -2.9670    -0.6410     0.3070 cd         1 2TH      -0.143000
     17 C14         -2.4130     0.4570    -0.1720 cc         1 2TH      -0.206000
     18 S1          -3.5030     1.7800    -0.4850 ss         1 2TH       0.196000
     19 C15         -4.8180     0.7110     0.0970 cc         1 2TH      -0.018000
     20 C16         -4.3700    -0.5470     0.4840 cd         1 2TH      -0.043000
     21 Cl1         -6.4700     1.2420     0.1540 cl         1 2TH      -0.147000
     22 N2          -1.0480     0.2790    -0.3120 na         1 2TH      -0.082000
     23 HO1          5.5960    -1.0030    -1.9940 ho         1 2TH       0.451000
     24 H1           3.1820    -0.7160    -2.1750 h1         1 2TH       0.049700
     25 H4           4.2570     1.1890     2.7410 ha         1 2TH       0.120000
     26 H5           5.0880     3.3290     1.7440 ha         1 2TH       0.115000
     27 H6           5.3360     3.5400    -0.7310 ha         1 2TH       0.115000
     28 H7           4.7570     1.6150    -2.2190 ha         1 2TH       0.112000
     29 H81          2.7850    -1.1030     2.0230 hc         1 2TH       0.074700
     30 H82          4.3510    -1.7810     1.5710 hc         1 2TH       0.074700
     31 H9           2.9540    -2.7580    -0.2530 h1         1 2TH       0.107700
     32 HN1          1.4490    -0.0980    -0.5230 hn         1 2TH       0.307500
     33 H12         -2.1230    -2.6170     0.8960 ha         1 2TH       0.157000
     34 H16         -5.0050    -1.3390     0.8660 ha         1 2TH       0.150000
     35 HN2         -0.3890     0.9710    -0.6590 hn         1 2TH       0.357000
@<TRIPOS>BOND
     1     1     2 1   
     2     1    23 1   
     3     2     3 1   
     4     2    10 1   
     5     2    24 1   
     6     3     4 ar  
     7     3     8 ar  
     8     4     5 ar  
     9     4     9 1   
    10     5     6 ar  
    11     5    25 1   
    12     6     7 ar  
    13     6    26 1   
    14     7     8 ar  
    15     7    27 1   
    16     8    28 1   
    17     9    10 1   
    18     9    29 1   
    19     9    30 1   
    20    10    11 1   
    21    10    31 1   
    22    11    12 1   
    23    11    32 1   
    24    12    13 2   
    25    12    14 1   
    26    14    15 2   
    27    14    22 1   
    28    15    16 1   
    29    15    33 1   
    30    16    17 2   
    31    16    20 1   
    32    17    18 1   
    33    17    22 1   
    34    18    19 1   
    35    19    20 2   
    36    19    21 1   
    37    20    34 1   
    38    22    35 1   
@<TRIPOS>SUBSTRUCTURE
     1 2TH         1 TEMP              0 ****  ****    0 ROOT
