@<TRIPOS>MOLECULE
2TK
   42    43     1     0     0
SMALL
abcg2


@<TRIPOS>ATOM
      1 C01          1.5280    -1.1940    -1.2810 ca         1 2TK      -0.140000
      2 C02          0.1750    -0.9270    -1.1490 ca         1 2TK      -0.075000
      3 C03         -0.3890    -0.8360     0.1110 ca         1 2TK      -0.012900
      4 C04          0.3870    -1.0190     1.2550 ca         1 2TK       0.150100
      5 C05          1.7420    -1.2920     1.1070 ca         1 2TK      -0.145000
      6 C06          2.3260    -1.3750    -0.1530 ca         1 2TK      -0.034300
      7 C07          3.8040    -1.6100    -0.2860 c3         1 2TK      -0.034100
      8 C08          4.6130    -0.3340    -0.0460 c3         1 2TK      -0.073400
      9 C09          6.1100    -0.5390    -0.2340 c3         1 2TK      -0.075400
     10 C10          6.9220     0.7210     0.0380 c3         1 2TK      -0.075400
     11 C11          8.4160     0.5370    -0.1940 c3         1 2TK      -0.074400
     12 C12          9.2180     1.8000     0.0910 c3         1 2TK      -0.088100
     13 O13         -0.1280    -0.9440     2.4960 oh         1 2TK      -0.529100
     14 O14         -1.7390    -0.6090     0.2740 os         1 2TK      -0.243200
     15 C15         -2.2250     0.6460     0.0880 ca         1 2TK       0.146100
     16 C16         -3.6100     0.7850     0.0170 ca         1 2TK      -0.054900
     17 C17         -4.1900     2.0320    -0.1560 ca         1 2TK      -0.055000
     18 C18         -3.3860     3.1570    -0.2640 ca         1 2TK      -0.140000
     19 C19         -2.0070     3.0250    -0.1920 ca         1 2TK      -0.065000
     20 C20         -1.4250     1.7780    -0.0160 ca         1 2TK      -0.175000
     21 BR1         -4.6990    -0.7450     0.1650 br         1 2TK      -0.078100
     22 H1           1.9640    -1.2660    -2.2690 ha         1 2TK       0.120000
     23 H2          -0.4480    -0.7910    -2.0250 ha         1 2TK       0.130000
     24 H3           2.3440    -1.4380     1.9960 ha         1 2TK       0.132000
     25 H4           4.1270    -2.3790     0.4220 hc         1 2TK       0.050700
     26 H5           4.0240    -1.9930    -1.2860 hc         1 2TK       0.050700
     27 H6           4.2640     0.4500    -0.7260 hc         1 2TK       0.043200
     28 H7           4.4170     0.0330     0.9670 hc         1 2TK       0.043200
     29 H8           6.4550    -1.3450     0.4230 hc         1 2TK       0.037700
     30 H9           6.3010    -0.8810    -1.2570 hc         1 2TK       0.037700
     31 H10          6.5550     1.5350    -0.5980 hc         1 2TK       0.038200
     32 H11          6.7530     1.0460     1.0710 hc         1 2TK       0.038200
     33 H12          8.7830    -0.2810     0.4340 hc         1 2TK       0.036700
     34 H13          8.5840     0.2220    -1.2280 hc         1 2TK       0.036700
     35 H14         10.2820     1.6510    -0.0950 hc         1 2TK       0.032033
     36 H15          8.8850     2.6270    -0.5390 hc         1 2TK       0.032033
     37 H16          9.1050     2.1140     1.1300 hc         1 2TK       0.032033
     38 H17         -1.0890    -0.8640     2.4630 ho         1 2TK       0.484000
     39 H18         -5.2660     2.1280    -0.2090 ha         1 2TK       0.130000
     40 H19         -3.8400     4.1290    -0.4030 ha         1 2TK       0.121000
     41 H20         -1.3710     3.8950    -0.2710 ha         1 2TK       0.118000
     42 H21         -0.3480     1.6940     0.0380 ha         1 2TK       0.132000
@<TRIPOS>BOND
     1     1     2 ar  
     2     1     6 ar  
     3     1    22 1   
     4     2     3 ar  
     5     2    23 1   
     6     3     4 ar  
     7     3    14 1   
     8     4     5 ar  
     9     4    13 1   
    10     5     6 ar  
    11     5    24 1   
    12     6     7 1   
    13     7     8 1   
    14     7    25 1   
    15     7    26 1   
    16     8     9 1   
    17     8    27 1   
    18     8    28 1   
    19     9    10 1   
    20     9    29 1   
    21     9    30 1   
    22    10    11 1   
    23    10    31 1   
    24    10    32 1   
    25    11    12 1   
    26    11    33 1   
    27    11    34 1   
    28    12    35 1   
    29    12    36 1   
    30    12    37 1   
    31    13    38 1   
    32    14    15 1   
    33    15    16 ar  
    34    15    20 ar  
    35    16    17 ar  
    36    16    21 1   
    37    17    18 ar  
    38    17    39 1   
    39    18    19 ar  
    40    18    40 1   
    41    19    20 ar  
    42    19    41 1   
    43    20    42 1   
@<TRIPOS>SUBSTRUCTURE
     1 2TK         1 TEMP              0 ****  ****    0 ROOT
