@<TRIPOS>MOLECULE
2TK
   42    43     1     0     0
SMALL
No Charge or Current Charge


@<TRIPOS>ATOM
      1 C01          1.5050    -0.6110    -1.0370 ca         1 2TK      -0.140000
      2 C02          0.1570    -0.3220    -0.7600 ca         1 2TK      -0.075000
      3 C03         -0.3710    -0.5850     0.5200 ca         1 2TK      -0.012900
      4 C04          0.4530    -1.1580     1.5090 ca         1 2TK       0.150100
      5 C05          1.7980    -1.4440     1.2290 ca         1 2TK      -0.145000
      6 C06          2.3320    -1.1720    -0.0450 ca         1 2TK      -0.034300
      7 C07          3.7930    -1.4770    -0.3460 c3         1 2TK      -0.034100
      8 C08          4.7130    -0.2800    -0.0280 c3         1 2TK      -0.073400
      9 C09          6.2020    -0.5620    -0.3250 c3         1 2TK      -0.075400
     10 C10          7.1200     0.6390    -0.0050 c3         1 2TK      -0.075400
     11 C11          8.6090     0.3580    -0.3020 c3         1 2TK      -0.074400
     12 C12          9.5250     1.5550     0.0170 c3         1 2TK      -0.088100
     13 O13         -0.0530    -1.4310     2.7470 oh         1 2TK      -0.529100
     14 O14         -1.6950    -0.3210     0.8120 os         1 2TK      -0.243200
     15 C15         -2.3760     0.7590     0.2930 ca         1 2TK       0.146100
     16 C16         -3.7080     0.6020    -0.1370 ca         1 2TK      -0.054900
     17 C17         -4.4160     1.7020    -0.6540 ca         1 2TK      -0.055000
     18 C18         -3.7950     2.9610    -0.7340 ca         1 2TK      -0.140000
     19 C19         -2.4700     3.1250    -0.2940 ca         1 2TK      -0.065000
     20 C20         -1.7620     2.0260     0.2230 ca         1 2TK      -0.175000
     21 Br1         -4.5720    -1.1070    -0.0370 br         1 2TK      -0.078100
     22 H1           1.9070    -0.3990    -2.0250 ha         1 2TK       0.120000
     23 H2          -0.4720     0.1010    -1.5400 ha         1 2TK       0.130000
     24 H3           2.4260    -1.8780     2.0030 ha         1 2TK       0.132000
     25 H4           4.1220    -2.3490     0.2330 hc         1 2TK       0.050700
     26 H5           3.9100    -1.7510    -1.4020 hc         1 2TK       0.050700
     27 H6           4.3860     0.5890    -0.6130 hc         1 2TK       0.043200
     28 H7           4.6000    -0.0130     1.0300 hc         1 2TK       0.043200
     29 H8           6.5290    -1.4300     0.2610 hc         1 2TK       0.037700
     30 H9           6.3140    -0.8290    -1.3830 hc         1 2TK       0.037700
     31 H10          6.7940     1.5080    -0.5910 hc         1 2TK       0.038200
     32 H11          7.0080     0.9060     1.0530 hc         1 2TK       0.038200
     33 H12          8.9390    -0.5090     0.2840 hc         1 2TK       0.036700
     34 H13          8.7250     0.0920    -1.3600 hc         1 2TK       0.036700
     35 H14         10.5690     1.3090    -0.2090 hc         1 2TK       0.032033
     36 H15          9.2410     2.4300    -0.5810 hc         1 2TK       0.032033
     37 H16          9.4570     1.8240     1.0780 hc         1 2TK       0.032033
     38 H17         -1.0000    -1.1670     2.7340 ho         1 2TK       0.484000
     39 H18         -5.4430     1.5790    -0.9920 ha         1 2TK       0.130000
     40 H19         -4.3440     3.8120    -1.1340 ha         1 2TK       0.121000
     41 H20         -1.9940     4.1020    -0.3510 ha         1 2TK       0.118000
     42 H21         -0.7410     2.1590     0.5710 ha         1 2TK       0.132000
@<TRIPOS>BOND
     1     1     2 ar  
     2     1     6 ar  
     3     1    22 1   
     4     2     3 ar  
     5     2    23 1   
     6     3     4 ar  
     7     3    14 1   
     8     4     5 ar  
     9     4    13 1   
    10     5     6 ar  
    11     5    24 1   
    12     6     7 1   
    13     7     8 1   
    14     7    25 1   
    15     7    26 1   
    16     8     9 1   
    17     8    27 1   
    18     8    28 1   
    19     9    10 1   
    20     9    29 1   
    21     9    30 1   
    22    10    11 1   
    23    10    31 1   
    24    10    32 1   
    25    11    12 1   
    26    11    33 1   
    27    11    34 1   
    28    12    35 1   
    29    12    36 1   
    30    12    37 1   
    31    13    38 1   
    32    14    15 1   
    33    15    16 ar  
    34    15    20 ar  
    35    16    17 ar  
    36    16    21 1   
    37    17    18 ar  
    38    17    39 1   
    39    18    19 ar  
    40    18    40 1   
    41    19    20 ar  
    42    19    41 1   
    43    20    42 1   
@<TRIPOS>SUBSTRUCTURE
     1 2TK         1 TEMP              0 ****  ****    0 ROOT
