@<TRIPOS>MOLECULE
2TL
   16    15     1     0     0
SMALL
bcc


@<TRIPOS>ATOM
      1 N          -15.7230     2.3680    -3.7670 n8         1 2TL      -0.859800
      2 CA         -16.0460     1.2610    -4.6690 c3         1 2TL      -0.015500
      3 CB         -16.3840     1.8010    -6.0660 c3         1 2TL       0.183100
      4 OG1        -17.5680     2.5630    -6.0690 oh         1 2TL      -0.655800
      5 CG2        -16.4400     0.6720    -7.0900 c3         1 2TL      -0.115100
      6 C          -17.2090     0.4720    -4.0190 c          1 2TL       0.938600
      7 O          -18.3800     0.7780    -4.3680 o          1 2TL      -0.827300
      8 OXT        -16.9000    -0.3740    -3.1690 o          1 2TL      -0.827300
      9 H          -15.4630     1.9910    -2.8630 hn         1 2TL       0.313300
     10 H2         -14.8960     2.8440    -4.1090 hn         1 2TL       0.313300
     11 HA         -15.2010     0.5670    -4.7880 h1         1 2TL       0.003700
     12 HB         -15.5660     2.4720    -6.3630 h1         1 2TL       0.007700
     13 HG1        -18.1600     2.0330    -5.4850 ho         1 2TL       0.470000
     14 HG21       -16.6480     1.0650    -8.0860 hc         1 2TL       0.024033
     15 HG22       -15.4920     0.1330    -7.1380 hc         1 2TL       0.024033
     16 HG23       -17.2230    -0.0510    -6.8480 hc         1 2TL       0.024033
@<TRIPOS>BOND
     1     1     2 1   
     2     1     9 1   
     3     1    10 1   
     4     2     3 1   
     5     2     6 1   
     6     2    11 1   
     7     3     4 1   
     8     3     5 1   
     9     3    12 1   
    10     4    13 1   
    11     5    14 1   
    12     5    15 1   
    13     5    16 1   
    14     6     7 1   
    15     6     8 1   
@<TRIPOS>SUBSTRUCTURE
     1 2TL         1 TEMP              0 ****  ****    0 ROOT
