@<TRIPOS>MOLECULE
2TN
   41    41     1     0     0
SMALL
No Charge or Current Charge


@<TRIPOS>ATOM
      1 O1           3.0130     2.2500     9.6010 o          1 2TN      -0.592100
      2 C11          2.5190     1.1790     9.9140 c          1 2TN       0.601100
      3 N2           3.1880     0.3340    10.7290 nt         1 2TN      -0.617000
      4 C10          1.1440     0.7070     9.4230 c3         1 2TN      -0.105100
      5 C7           1.2130     0.2160     7.9790 ca         1 2TN      -0.114300
      6 C8           1.0220     1.1160     6.9130 ca         1 2TN      -0.055000
      7 C9           1.0870     0.6680     5.5820 ca         1 2TN      -0.174500
      8 C4           1.3480    -0.6920     5.3060 ca         1 2TN       0.157100
      9 C5           1.5390    -1.5870     6.3700 ca         1 2TN      -0.174500
     10 C6           1.4740    -1.1400     7.7000 ca         1 2TN      -0.055000
     11 O2           1.4250    -1.1900     4.0230 os         1 2TN      -0.334100
     12 C1           1.2570    -0.3490     2.8590 c3         1 2TN       0.175600
     13 C2           1.4250    -1.1990     1.5660 c3         1 2TN       0.174300
     14 O3           0.4300    -2.2440     1.5100 oh         1 2TN      -0.645000
     15 C3           2.8510    -1.8110     1.4240 c3         1 2TN       0.126800
     16 N1           3.8860    -0.7670     1.1990 n7         1 2TN      -0.868400
     17 C12          5.2820    -1.2350     1.1170 c3         1 2TN       0.181500
     18 C14          5.7980    -1.6710     2.5070 c3         1 2TN      -0.092600
     19 C13          6.1440    -0.1060     0.5210 c3         1 2TN      -0.092600
     20 HN21         2.7800    -0.5540    10.9820 hn         1 2TN       0.311000
     21 HN22         4.0990     0.5980    11.0740 hn         1 2TN       0.311000
     22 H101         0.4430     1.5460     9.4910 hc         1 2TN       0.057700
     23 H102         0.7860    -0.1100    10.0620 hc         1 2TN       0.057700
     24 H8           0.8230     2.1670     7.1160 ha         1 2TN       0.108500
     25 H9           0.9350     1.3880     4.7840 ha         1 2TN       0.120500
     26 H5           1.7410    -2.6350     6.1610 ha         1 2TN       0.120500
     27 H6           1.6260    -1.8470     8.5130 ha         1 2TN       0.108500
     28 H11          0.2600     0.1090     2.8560 h1         1 2TN       0.049700
     29 H12A         2.0020     0.4570     2.8570 h1         1 2TN       0.049700
     30 H2           1.2690    -0.5240     0.7140 h1         1 2TN       0.028700
     31 HO3          0.4840    -2.6470     0.6160 ho         1 2TN       0.439000
     32 H31          3.0710    -2.3910     2.3300 h1         1 2TN       0.041200
     33 H32          2.8520    -2.5150     0.5800 h1         1 2TN       0.041200
     34 HN1          3.6680    -0.2970     0.3120 hn         1 2TN       0.403000
     35 H12          5.3460    -2.0950     0.4360 h1         1 2TN       0.015700
     36 H141         6.8570    -1.9490     2.4510 hc         1 2TN       0.039867
     37 H142         5.6970    -0.8570     3.2350 hc         1 2TN       0.039867
     38 H143         5.2490    -2.5420     2.8810 hc         1 2TN       0.039867
     39 H131         5.7830     0.1740    -0.4770 hc         1 2TN       0.039867
     40 H132         7.1870    -0.4300     0.4220 hc         1 2TN       0.039867
     41 H133         6.1210     0.7860     1.1590 hc         1 2TN       0.039867
@<TRIPOS>BOND
     1     1     2 2   
     2     2     3 1   
     3     2     4 1   
     4     3    20 1   
     5     3    21 1   
     6     4     5 1   
     7     4    22 1   
     8     4    23 1   
     9     5     6 ar  
    10     5    10 ar  
    11     6     7 ar  
    12     6    24 1   
    13     7     8 ar  
    14     7    25 1   
    15     8     9 ar  
    16     8    11 1   
    17     9    10 ar  
    18     9    26 1   
    19    10    27 1   
    20    11    12 1   
    21    12    13 1   
    22    12    28 1   
    23    12    29 1   
    24    13    14 1   
    25    13    15 1   
    26    13    30 1   
    27    14    31 1   
    28    15    16 1   
    29    15    32 1   
    30    15    33 1   
    31    16    17 1   
    32    16    34 1   
    33    17    18 1   
    34    17    19 1   
    35    17    35 1   
    36    18    36 1   
    37    18    37 1   
    38    18    38 1   
    39    19    39 1   
    40    19    40 1   
    41    19    41 1   
@<TRIPOS>SUBSTRUCTURE
     1 2TN         1 TEMP              0 ****  ****    0 ROOT
