@<TRIPOS>MOLECULE
2TN
   41    41     1     0     0
SMALL
abcg2


@<TRIPOS>ATOM
      1 O1           3.6880     1.3490     8.8610 o          1 2TN      -0.592100
      2 C11          2.8600     0.9340     9.6570 c          1 2TN       0.601100
      3 N2           3.0730     0.8900    10.9810 nt         1 2TN      -0.617000
      4 C10          1.4830     0.4520     9.2240 c3         1 2TN      -0.105100
      5 C7           1.4440     0.0140     7.7920 ca         1 2TN      -0.114300
      6 C8           1.1870     0.9160     6.7700 ca         1 2TN      -0.055000
      7 C9           1.1630     0.5260     5.4360 ca         1 2TN      -0.174500
      8 C4           1.4080    -0.8040     5.1010 ca         1 2TN       0.157100
      9 C5           1.6690    -1.7230     6.1190 ca         1 2TN      -0.174500
     10 C6           1.6840    -1.3140     7.4400 ca         1 2TN      -0.055000
     11 O2           1.4030    -1.2870     3.8450 os         1 2TN      -0.334100
     12 C1           1.1860    -0.3960     2.7690 c3         1 2TN       0.175600
     13 C2           1.3580    -1.1490     1.4690 c3         1 2TN       0.174300
     14 O3           0.3700    -2.1540     1.4110 oh         1 2TN      -0.645000
     15 C3           2.7600    -1.7360     1.3080 c3         1 2TN       0.126800
     16 N1           3.7560    -0.6870     1.2960 n7         1 2TN      -0.868400
     17 C12          5.1370    -1.1550     1.3460 c3         1 2TN       0.181500
     18 C14          5.4910    -1.6390     2.7460 c3         1 2TN      -0.092600
     19 C13          6.0580    -0.0160     0.9330 c3         1 2TN      -0.092600
     20 HN21         2.3710     0.5620    11.6210 hn         1 2TN       0.311000
     21 HN22         3.9250     1.2560    11.3740 hn         1 2TN       0.311000
     22 H101         0.7920     1.2850     9.3840 hc         1 2TN       0.057700
     23 H102         1.1440    -0.3490     9.8850 hc         1 2TN       0.057700
     24 H8           0.9890     1.9540     7.0080 ha         1 2TN       0.108500
     25 H9           0.9500     1.2690     4.6800 ha         1 2TN       0.120500
     26 H5           1.8570    -2.7590     5.8660 ha         1 2TN       0.120500
     27 H6           1.8840    -2.0470     8.2130 ha         1 2TN       0.108500
     28 H11          0.1780     0.0320     2.8220 h1         1 2TN       0.049700
     29 H12A         1.9050     0.4280     2.7920 h1         1 2TN       0.049700
     30 H2           1.2040    -0.4030     0.6730 h1         1 2TN       0.028700
     31 HO3          0.4280    -2.5860     0.5530 ho         1 2TN       0.439000
     32 H31          2.9540    -2.4180     2.1360 h1         1 2TN       0.041200
     33 H32          2.7810    -2.3490     0.3910 h1         1 2TN       0.041200
     34 HN1          3.6330    -0.1410     0.4510 hn         1 2TN       0.403000
     35 H12          5.2960    -1.9900     0.6430 h1         1 2TN       0.015700
     36 H141         6.5290    -1.9740     2.7800 hc         1 2TN       0.039867
     37 H142         5.3670    -0.8310     3.4700 hc         1 2TN       0.039867
     38 H143         4.8700    -2.4750     3.0700 hc         1 2TN       0.039867
     39 H131         5.8290     0.3390    -0.0740 hc         1 2TN       0.039867
     40 H132         7.0990    -0.3390     0.9410 hc         1 2TN       0.039867
     41 H133         5.9620     0.8290     1.6190 hc         1 2TN       0.039867
@<TRIPOS>BOND
     1     1     2 2   
     2     2     3 1   
     3     2     4 1   
     4     3    20 1   
     5     3    21 1   
     6     4     5 1   
     7     4    22 1   
     8     4    23 1   
     9     5     6 ar  
    10     5    10 ar  
    11     6     7 ar  
    12     6    24 1   
    13     7     8 ar  
    14     7    25 1   
    15     8     9 ar  
    16     8    11 1   
    17     9    10 ar  
    18     9    26 1   
    19    10    27 1   
    20    11    12 1   
    21    12    13 1   
    22    12    28 1   
    23    12    29 1   
    24    13    14 1   
    25    13    15 1   
    26    13    30 1   
    27    14    31 1   
    28    15    16 1   
    29    15    32 1   
    30    15    33 1   
    31    16    17 1   
    32    16    34 1   
    33    17    18 1   
    34    17    19 1   
    35    17    35 1   
    36    18    36 1   
    37    18    37 1   
    38    18    38 1   
    39    19    39 1   
    40    19    40 1   
    41    19    41 1   
@<TRIPOS>SUBSTRUCTURE
     1 2TN         1 TEMP              0 ****  ****    0 ROOT
