@<TRIPOS>MOLECULE
2TO
   58    61     1     0     0
SMALL
abcg2


@<TRIPOS>ATOM
      1 C17         44.6390   -20.5110   -15.4410 ca         1 2TO       0.064000
      2 C18         44.9860   -19.1920   -15.5720 ca         1 2TO      -0.260000
      3 C19         44.4590   -18.2530   -14.6530 ca         1 2TO       0.668900
      4 N6          44.7440   -16.9380   -14.7630 nv         1 2TO      -1.070900
      5 N5          43.6420   -18.6190   -13.6480 nb         1 2TO      -0.763000
      6 C20         43.3140   -19.9020   -13.5340 ca         1 2TO       0.495900
      7 C16         43.7800   -20.8880   -14.3970 ca         1 2TO      -0.461500
      8 S1          43.2070   -22.5370   -14.2550 sy         1 2TO       1.193600
      9 O2          44.1780   -23.4110   -14.8690 o          1 2TO      -0.546000
     10 O3          42.8100   -22.7710   -12.8860 o          1 2TO      -0.546000
     11 N3          41.8270   -22.6400   -15.1700 n3         1 2TO      -0.709500
     12 C10         42.0230   -22.4400   -16.6190 c6         1 2TO       0.171800
     13 C11         40.7480   -22.7770   -17.3790 c6         1 2TO       0.219800
     14 C9          40.6740   -21.8900   -14.6360 c6         1 2TO       0.171800
     15 C8          39.4330   -22.2340   -15.4370 c6         1 2TO       0.219800
     16 N2          39.6560   -21.9710   -16.8540 nh         1 2TO      -0.790300
     17 C6          38.6510   -21.5260   -17.6820 ca         1 2TO       0.649900
     18 N1          38.5350   -22.1110   -18.8810 nb         1 2TO      -0.739000
     19 C3          37.5620   -21.7410   -19.7100 ca         1 2TO       0.431900
     20 C1          36.6010   -20.7930   -19.3850 ca         1 2TO      -0.263300
     21 C4          35.4710   -20.3640   -20.3130 c3         1 2TO       0.135300
     22 C21         35.9780   -19.2350   -21.2590 c3         1 2TO       0.292500
     23 F2          37.0350   -19.6310   -21.9840 f          1 2TO      -0.096000
     24 F3          36.3550   -18.1710   -20.5350 f          1 2TO      -0.096000
     25 F1          35.0320   -18.8190   -22.1170 f          1 2TO      -0.096000
     26 C22         34.8920   -21.5580   -21.1380 c3         1 2TO       0.292500
     27 F5          34.5730   -22.5630   -20.3030 f          1 2TO      -0.096000
     28 F6          35.7470   -22.0440   -22.0550 f          1 2TO      -0.096000
     29 F4          33.7720   -21.2120   -21.7860 f          1 2TO      -0.096000
     30 O1          34.3960   -19.7760   -19.6280 oh         1 2TO      -0.621000
     31 C2          36.7580   -20.1350   -18.1630 ca         1 2TO      -0.008000
     32 C5          37.7970   -20.4520   -17.3070 cp         1 2TO      -0.133000
     33 C7          38.0350   -19.5960   -16.1220 cp         1 2TO      -0.086000
     34 C15         37.0360   -19.3300   -15.1880 ca         1 2TO      -0.070000
     35 C14         37.3150   -18.4920   -14.1170 ca         1 2TO      -0.161000
     36 C13         38.5850   -17.9400   -14.0150 ca         1 2TO       0.337900
     37 N4          39.5510   -18.1680   -14.9120 nb         1 2TO      -0.662000
     38 C12         39.2740   -18.9750   -15.9340 ca         1 2TO       0.350900
     39 H1          45.0270   -21.2530   -16.1250 ha         1 2TO       0.134000
     40 H2          45.6510   -18.8630   -16.3590 ha         1 2TO       0.125000
     41 H3          44.4520   -16.3120   -14.0310 hn         1 2TO       0.499500
     42 H4          45.4440   -16.6190   -15.4100 hn         1 2TO       0.499500
     43 H5          42.6570   -20.1630   -12.7130 h4         1 2TO       0.036100
     44 H6          42.8300   -23.0880   -16.9520 h1         1 2TO       0.066450
     45 H7          42.2920   -21.3980   -16.8280 h1         1 2TO       0.066450
     46 H8          40.5240   -23.8470   -17.2880 h1         1 2TO       0.064450
     47 H9          40.8950   -22.5480   -18.4300 h1         1 2TO       0.064450
     48 H10         40.8560   -20.8120   -14.6940 h1         1 2TO       0.066450
     49 H11         40.5300   -22.1690   -13.5960 h1         1 2TO       0.066450
     50 H12         38.5970   -21.6560   -15.0620 h1         1 2TO       0.064450
     51 H13         39.1930   -23.2970   -15.3040 h1         1 2TO       0.064450
     52 H14         37.5590   -22.2420   -20.6690 h4         1 2TO       0.039100
     53 H15         34.1570   -20.3220   -18.8640 ho         1 2TO       0.477000
     54 H16         36.0970   -19.3220   -17.8990 ha         1 2TO       0.135000
     55 H17         36.0600   -19.7880   -15.2910 ha         1 2TO       0.120000
     56 H18         36.5640   -18.2750   -13.3690 ha         1 2TO       0.128000
     57 H19         38.8370   -17.2880   -13.1860 h4         1 2TO       0.026100
     58 H20         40.0730   -19.1460   -16.6460 h4         1 2TO       0.028100
@<TRIPOS>BOND
     1     1     2 ar  
     2     1     7 ar  
     3     1    39 1   
     4     2     3 ar  
     5     2    40 1   
     6     3     4 1   
     7     3     5 ar  
     8     4    41 1   
     9     4    42 1   
    10     5     6 ar  
    11     6     7 ar  
    12     6    43 1   
    13     7     8 1   
    14     8     9 2   
    15     8    10 2   
    16     8    11 1   
    17    11    12 1   
    18    11    14 1   
    19    12    13 1   
    20    12    44 1   
    21    12    45 1   
    22    13    16 1   
    23    13    46 1   
    24    13    47 1   
    25    14    15 1   
    26    14    48 1   
    27    14    49 1   
    28    15    16 1   
    29    15    50 1   
    30    15    51 1   
    31    16    17 1   
    32    17    18 ar  
    33    17    32 ar  
    34    18    19 ar  
    35    19    20 ar  
    36    19    52 1   
    37    20    21 1   
    38    20    31 ar  
    39    21    22 1   
    40    21    26 1   
    41    21    30 1   
    42    22    23 1   
    43    22    24 1   
    44    22    25 1   
    45    26    27 1   
    46    26    28 1   
    47    26    29 1   
    48    30    53 1   
    49    31    32 ar  
    50    31    54 1   
    51    32    33 1   
    52    33    34 ar  
    53    33    38 ar  
    54    34    35 ar  
    55    34    55 1   
    56    35    36 ar  
    57    35    56 1   
    58    36    37 ar  
    59    36    57 1   
    60    37    38 ar  
    61    38    58 1   
@<TRIPOS>SUBSTRUCTURE
     1 2TO         1 TEMP              0 ****  ****    0 ROOT
