@<TRIPOS>MOLECULE
2TO
   58    61     1     0     0
SMALL
No Charge or Current Charge


@<TRIPOS>ATOM
      1 C17         45.0910   -21.6040   -15.1820 ca         1 2TO       0.064000
      2 C18         46.2890   -21.3330   -15.8490 ca         1 2TO      -0.260000
      3 C19         46.8040   -20.0430   -15.7700 ca         1 2TO       0.668900
      4 N6          47.9390   -19.6660   -16.3520 nv         1 2TO      -1.070900
      5 N5          46.2620   -19.0360   -15.1080 nb         1 2TO      -0.763000
      6 C20         45.1040   -19.2870   -14.4600 ca         1 2TO       0.495900
      7 C16         44.4990   -20.5440   -14.4790 ca         1 2TO      -0.461500
      8 S1          42.9810   -20.7690   -13.6020 sy         1 2TO       1.193600
      9 O2          43.0860   -22.0420   -12.8830 o          1 2TO      -0.546000
     10 O3          42.5920   -19.5230   -12.9360 o          1 2TO      -0.546000
     11 N3          41.8790   -21.0420   -14.8650 n3         1 2TO      -0.709500
     12 C10         41.8830   -20.0210   -15.9560 c6         1 2TO       0.171800
     13 C11         40.9430   -20.4010   -17.1410 c6         1 2TO       0.219800
     14 C9          40.4860   -21.3110   -14.4060 c6         1 2TO       0.171800
     15 C8          39.5390   -21.7160   -15.5750 c6         1 2TO       0.219800
     16 N2          39.5520   -20.7080   -16.6790 nh         1 2TO      -0.790300
     17 C6          38.4620   -20.6570   -17.5650 ca         1 2TO       0.649900
     18 N1          38.7930   -20.9620   -18.8290 nb         1 2TO      -0.739000
     19 C3          37.8210   -21.0020   -19.7580 ca         1 2TO       0.431900
     20 C1          36.4570   -20.7560   -19.4790 ca         1 2TO      -0.263300
     21 C4          35.3590   -20.7840   -20.5790 c3         1 2TO       0.135300
     22 C21         35.0460   -19.3060   -21.0430 c3         1 2TO       0.292500
     23 F2          36.1530   -18.6930   -21.5240 f          1 2TO      -0.096000
     24 F3          34.5910   -18.5500   -20.0140 f          1 2TO      -0.096000
     25 F1          34.1010   -19.2650   -22.0130 f          1 2TO      -0.096000
     26 C22         35.7090   -21.7150   -21.8180 c3         1 2TO       0.292500
     27 F5          36.1460   -22.9280   -21.4020 f          1 2TO      -0.096000
     28 F6          36.6660   -21.1860   -22.6150 f          1 2TO      -0.096000
     29 F4          34.6240   -21.9360   -22.5980 f          1 2TO      -0.096000
     30 O1          34.1740   -21.3340   -19.9540 oh         1 2TO      -0.621000
     31 C2          36.1270   -20.4140   -18.1500 ca         1 2TO      -0.008000
     32 C5          37.1320   -20.3560   -17.1600 cp         1 2TO      -0.133000
     33 C7          36.7760   -19.9520   -15.7610 cp         1 2TO      -0.086000
     34 C15         35.6310   -20.4770   -15.1170 ca         1 2TO      -0.070000
     35 C14         35.3390   -20.0690   -13.8060 ca         1 2TO      -0.161000
     36 C13         36.1860   -19.1490   -13.1670 ca         1 2TO       0.337900
     37 N4          37.2820   -18.6250   -13.7620 nb         1 2TO      -0.662000
     38 C12         37.5620   -19.0210   -15.0270 ca         1 2TO       0.350900
     39 H1          44.6380   -22.5960   -15.2140 ha         1 2TO       0.134000
     40 H2          46.8010   -22.1050   -16.4150 ha         1 2TO       0.125000
     41 H3          48.3030   -18.7910   -15.9990 hn         1 2TO       0.499500
     42 H4          48.6240   -20.3910   -16.5330 hn         1 2TO       0.499500
     43 H5          44.6670   -18.4460   -13.9220 h4         1 2TO       0.036100
     44 H6          42.8920   -19.8840   -16.3690 h1         1 2TO       0.066450
     45 H7          41.5640   -19.0450   -15.5620 h1         1 2TO       0.066450
     46 H8          41.3680   -21.2720   -17.6600 h1         1 2TO       0.064450
     47 H9          40.9350   -19.5640   -17.8560 h1         1 2TO       0.064450
     48 H10         40.0680   -20.4210   -13.9130 h1         1 2TO       0.066450
     49 H11         40.4740   -22.1220   -13.6630 h1         1 2TO       0.066450
     50 H12         38.5250   -21.8510   -15.1720 h1         1 2TO       0.064450
     51 H13         39.8620   -22.6930   -15.9630 h1         1 2TO       0.064450
     52 H14         38.1670   -21.2420   -20.7600 h4         1 2TO       0.039100
     53 H15         34.4240   -22.2010   -19.5650 ho         1 2TO       0.477000
     54 H16         35.1020   -20.1670   -17.8790 ha         1 2TO       0.135000
     55 H17         34.9890   -21.1960   -15.6220 ha         1 2TO       0.120000
     56 H18         34.4700   -20.4600   -13.2830 ha         1 2TO       0.128000
     57 H19         35.9800   -18.8180   -12.1500 h4         1 2TO       0.026100
     58 H20         38.4440   -18.5670   -15.4780 h4         1 2TO       0.028100
@<TRIPOS>BOND
     1     1     2 ar  
     2     1     7 ar  
     3     1    39 1   
     4     2     3 ar  
     5     2    40 1   
     6     3     4 1   
     7     3     5 ar  
     8     4    41 1   
     9     4    42 1   
    10     5     6 ar  
    11     6     7 ar  
    12     6    43 1   
    13     7     8 1   
    14     8     9 2   
    15     8    10 2   
    16     8    11 1   
    17    11    12 1   
    18    11    14 1   
    19    12    13 1   
    20    12    44 1   
    21    12    45 1   
    22    13    16 1   
    23    13    46 1   
    24    13    47 1   
    25    14    15 1   
    26    14    48 1   
    27    14    49 1   
    28    15    16 1   
    29    15    50 1   
    30    15    51 1   
    31    16    17 1   
    32    17    18 ar  
    33    17    32 ar  
    34    18    19 ar  
    35    19    20 ar  
    36    19    52 1   
    37    20    21 1   
    38    20    31 ar  
    39    21    22 1   
    40    21    26 1   
    41    21    30 1   
    42    22    23 1   
    43    22    24 1   
    44    22    25 1   
    45    26    27 1   
    46    26    28 1   
    47    26    29 1   
    48    30    53 1   
    49    31    32 ar  
    50    31    54 1   
    51    32    33 1   
    52    33    34 ar  
    53    33    38 ar  
    54    34    35 ar  
    55    34    55 1   
    56    35    36 ar  
    57    35    56 1   
    58    36    37 ar  
    59    36    57 1   
    60    37    38 ar  
    61    38    58 1   
@<TRIPOS>SUBSTRUCTURE
     1 2TO         1 TEMP              0 ****  ****    0 ROOT
