@<TRIPOS>MOLECULE
2TQ
   19    20     1     0     0
SMALL
abcg2


@<TRIPOS>ATOM
      1 OXT         -2.9960    -0.1670    -0.2210 o          1 2TQ      -0.717000
      2 C           -1.9390     0.3100     0.2390 c          1 2TQ       0.728000
      3 O           -1.8190     1.1420     1.1530 o          1 2TQ      -0.717000
      4 CA          -0.6630    -0.2220    -0.4350 c5         1 2TQ      -0.040300
      5 CB          -0.5170    -1.7610    -0.3050 c5         1 2TQ      -0.077400
      6 CG           0.9920    -2.0200    -0.1920 c5         1 2TQ      -0.103400
      7 CD           1.4660    -0.8210     0.6190 cy         1 2TQ       0.043700
      8 N            0.5890     0.2480     0.1340 nj         1 2TQ      -0.311800
      9 CAH          1.6060     0.9270    -0.4650 c          1 2TQ       0.543000
     10 OAB          1.5990     1.8640    -1.2300 o          1 2TQ      -0.542000
     11 CAF          2.6700     0.0130     0.1370 cy         1 2TQ      -0.204400
     12 H2          -0.6960     0.0590    -1.4940 h1         1 2TQ       0.043700
     13 H3          -1.0200    -2.1090     0.6010 hc         1 2TQ       0.049200
     14 H4          -0.9710    -2.2820    -1.1460 hc         1 2TQ       0.049200
     15 H5           1.2210    -2.9780     0.2750 hc         1 2TQ       0.030700
     16 H6           1.4560    -2.0110    -1.1820 hc         1 2TQ       0.030700
     17 H7           1.4080    -0.9940     1.6960 h1         1 2TQ       0.074700
     18 H8           3.2860     0.4640     0.9150 hc         1 2TQ       0.060200
     19 H9           3.3140    -0.4720    -0.5970 hc         1 2TQ       0.060200
@<TRIPOS>BOND
     1     1     2 1   
     2     2     3 1   
     3     2     4 1   
     4     4     5 1   
     5     4     8 1   
     6     4    12 1   
     7     5     6 1   
     8     5    13 1   
     9     5    14 1   
    10     6     7 1   
    11     6    15 1   
    12     6    16 1   
    13     7     8 1   
    14     7    11 1   
    15     7    17 1   
    16     8     9 1   
    17     9    10 2   
    18     9    11 1   
    19    11    18 1   
    20    11    19 1   
@<TRIPOS>SUBSTRUCTURE
     1 2TQ         1 TEMP              0 ****  ****    0 ROOT
