@<TRIPOS>MOLECULE
2TQ
   19    20     1     0     0
SMALL
No Charge or Current Charge


@<TRIPOS>ATOM
      1 OXT         -2.8190     0.7740    -0.4670 o          1 2TQ      -0.717000
      2 C           -1.9310     0.3060     0.2330 c          1 2TQ       0.728000
      3 O           -1.9920     0.3420     1.4560 o          1 2TQ      -0.717000
      4 CA          -0.6680    -0.2970    -0.4690 c5         1 2TQ      -0.040300
      5 CB          -0.5460    -1.8300    -0.1920 c5         1 2TQ      -0.077400
      6 CG           1.0030    -2.0500    -0.2170 c5         1 2TQ      -0.103400
      7 CD           1.5040    -0.8200     0.5870 cy         1 2TQ       0.043700
      8 N            0.6030     0.1980     0.0430 nj         1 2TQ      -0.311800
      9 CAH          1.6140     0.9100    -0.6110 c          1 2TQ       0.543000
     10 OAB          1.6150     1.7650    -1.4850 o          1 2TQ      -0.542000
     11 CAF          2.6910     0.1130     0.1730 cy         1 2TQ      -0.204400
     12 H2          -0.7130    -0.0860    -1.5460 h1         1 2TQ       0.043700
     13 H3          -0.9520    -2.0980     0.7910 hc         1 2TQ       0.049200
     14 H4          -1.0740    -2.4350    -0.9370 hc         1 2TQ       0.049200
     15 H5           1.2960    -3.0040     0.2350 hc         1 2TQ       0.030700
     16 H6           1.3820    -2.0520    -1.2460 hc         1 2TQ       0.030700
     17 H7           1.3810    -0.9420     1.6700 h1         1 2TQ       0.074700
     18 H8           3.1400     0.7170     0.9670 hc         1 2TQ       0.060200
     19 H9           3.4530    -0.3220    -0.4800 hc         1 2TQ       0.060200
@<TRIPOS>BOND
     1     1     2 1   
     2     2     3 1   
     3     2     4 1   
     4     4     5 1   
     5     4     8 1   
     6     4    12 1   
     7     5     6 1   
     8     5    13 1   
     9     5    14 1   
    10     6     7 1   
    11     6    15 1   
    12     6    16 1   
    13     7     8 1   
    14     7    11 1   
    15     7    17 1   
    16     8     9 1   
    17     9    10 2   
    18     9    11 1   
    19    11    18 1   
    20    11    19 1   
@<TRIPOS>SUBSTRUCTURE
     1 2TQ         1 TEMP              0 ****  ****    0 ROOT
