@<TRIPOS>MOLECULE
2TR
   50    53     1     0     0
SMALL
No Charge or Current Charge


@<TRIPOS>ATOM
      1 C4         -38.7370  -115.1570   218.8400 c          1 2TR       0.635700
      2 C6         -39.6830  -114.6790   219.8970 ca         1 2TR      -0.266600
      3 C7         -40.4490  -113.5220   219.6980 ca         1 2TR       0.369000
      4 C8         -41.3450  -113.0910   220.6820 ca         1 2TR      -0.213000
      5 C10        -40.6860  -114.9420   222.1340 cp         1 2TR      -0.124000
      6 C13        -40.8100  -115.6920   223.4250 cp         1 2TR      -0.124000
      7 C17        -40.7450  -115.8800   225.8340 ca         1 2TR      -0.190300
      8 C20        -40.5860  -115.5850   227.3060 c5         1 2TR       0.004300
      9 C21        -41.7550  -114.7060   227.8460 c5         1 2TR      -0.067400
     10 C22        -41.0610  -114.0090   229.0450 c5         1 2TR      -0.120400
     11 C24        -39.2440  -114.8710   227.7010 c5         1 2TR      -0.064400
     12 C26        -40.6390  -117.0470   227.9400 c5         1 2TR       0.199800
     13 C1         -37.7910  -117.0560   217.5100 c3         1 2TR       0.085800
     14 C11        -39.7920  -115.3690   221.1200 ca         1 2TR       0.252000
     15 C14        -41.1440  -117.0750   223.4200 ca         1 2TR       0.399900
     16 C16        -41.1030  -117.1900   225.6810 ca         1 2TR       0.586900
     17 C18        -40.6020  -115.0780   224.6900 ca         1 2TR       0.217000
     18 C23        -39.7340  -113.5550   228.3790 c5         1 2TR       0.165300
     19 C3         -40.0520  -117.2970   218.5950 c3         1 2TR       0.085800
     20 C9         -41.4720  -113.7950   221.8870 ca         1 2TR      -0.010000
     21 F12        -38.9880  -116.4300   221.3620 f          1 2TR      -0.171000
     22 N15        -41.3010  -117.8260   224.5350 nb         1 2TR      -0.714000
     23 N2         -38.8060  -116.5110   218.4360 n          1 2TR      -0.393800
     24 N27        -41.2810  -117.8630   226.8500 nu         1 2TR      -0.898100
     25 N28        -40.3610  -112.8050   218.5420 nv         1 2TR      -1.073000
     26 O25        -38.8000  -113.0690   229.3380 oh         1 2TR      -0.653000
     27 O5         -37.8820  -114.4080   218.3830 o          1 2TR      -0.613100
     28 Cl19       -40.1590  -113.3740   224.8240 cl         1 2TR      -0.187000
     29 H1         -41.9520  -112.2050   220.5160 ha         1 2TR       0.120000
     30 H2         -42.0890  -113.9700   227.1050 hc         1 2TR       0.056700
     31 H3         -42.6360  -115.2880   228.1400 hc         1 2TR       0.056700
     32 H4         -41.6480  -113.1660   229.4270 hc         1 2TR       0.050700
     33 H5         -40.8910  -114.7000   229.8810 hc         1 2TR       0.050700
     34 H6         -38.6530  -115.4670   228.4060 hc         1 2TR       0.063700
     35 H7         -38.5910  -114.6720   226.8450 hc         1 2TR       0.063700
     36 H8         -41.1930  -117.0820   228.8900 h1         1 2TR       0.052200
     37 H9         -39.6260  -117.4230   228.1410 h1         1 2TR       0.052200
     38 H10        -36.7850  -116.7900   217.8580 h1         1 2TR       0.043867
     39 H11        -37.8670  -118.1500   217.4640 h1         1 2TR       0.043867
     40 H12        -37.9470  -116.6430   216.5050 h1         1 2TR       0.043867
     41 H13        -41.3110  -117.5910   222.4750 h4         1 2TR       0.024100
     42 H14        -39.9340  -112.7830   227.6240 h1         1 2TR       0.036700
     43 H15        -40.9230  -116.6320   218.6680 h1         1 2TR       0.043867
     44 H16        -40.1960  -117.9540   217.7280 h1         1 2TR       0.043867
     45 H17        -39.9910  -117.9150   219.4980 h1         1 2TR       0.043867
     46 H18        -42.1810  -113.4500   222.6370 ha         1 2TR       0.122000
     47 H19        -41.1310  -118.8660   226.7620 hn         1 2TR       0.490000
     48 H20        -40.7840  -111.8800   218.5130 hn         1 2TR       0.468500
     49 H21        -39.5250  -112.9330   217.9730 hn         1 2TR       0.468500
     50 H22        -39.2040  -112.2720   229.7470 ho         1 2TR       0.444000
@<TRIPOS>BOND
     1     1     2 1   
     2     1    23 1   
     3     1    27 2   
     4     2     3 ar  
     5     2    14 ar  
     6     3     4 ar  
     7     3    25 1   
     8     4    20 ar  
     9     4    29 1   
    10     5     6 1   
    11     5    14 ar  
    12     5    20 ar  
    13     6    15 ar  
    14     6    17 ar  
    15     7     8 1   
    16     7    16 ar  
    17     7    17 ar  
    18     8     9 1   
    19     8    11 1   
    20     8    12 1   
    21     9    10 1   
    22     9    30 1   
    23     9    31 1   
    24    10    18 1   
    25    10    32 1   
    26    10    33 1   
    27    11    18 1   
    28    11    34 1   
    29    11    35 1   
    30    12    24 1   
    31    12    36 1   
    32    12    37 1   
    33    13    23 1   
    34    13    38 1   
    35    13    39 1   
    36    13    40 1   
    37    14    21 1   
    38    15    22 ar  
    39    15    41 1   
    40    16    22 ar  
    41    16    24 1   
    42    17    28 1   
    43    18    26 1   
    44    18    42 1   
    45    19    23 1   
    46    19    43 1   
    47    19    44 1   
    48    19    45 1   
    49    20    46 1   
    50    24    47 1   
    51    25    48 1   
    52    25    49 1   
    53    26    50 1   
@<TRIPOS>SUBSTRUCTURE
     1 2TR         1 TEMP              0 ****  ****    0 ROOT
