@<TRIPOS>MOLECULE
2TR
   50    53     1     0     0
SMALL
abcg2


@<TRIPOS>ATOM
      1 C4         -38.6180  -115.2120   219.0350 c          1 2TR       0.635700
      2 C6         -39.6820  -114.7660   219.9930 ca         1 2TR      -0.266600
      3 C7         -40.4350  -113.6090   219.7290 ca         1 2TR       0.369000
      4 C8         -41.3860  -113.2100   220.6790 ca         1 2TR      -0.213000
      5 C10        -40.7820  -115.0330   222.1620 cp         1 2TR      -0.124000
      6 C13        -40.9130  -115.7620   223.4360 cp         1 2TR      -0.124000
      7 C17        -40.6960  -115.9120   225.8300 ca         1 2TR      -0.190300
      8 C20        -40.5080  -115.6030   227.2920 c5         1 2TR       0.004300
      9 C21        -41.6910  -114.7480   227.8270 c5         1 2TR      -0.067400
     10 C22        -41.0810  -113.9190   228.9480 c5         1 2TR      -0.120400
     11 C24        -39.2400  -114.8320   227.7260 c5         1 2TR      -0.064400
     12 C26        -40.5330  -117.0320   227.8850 c5         1 2TR       0.199800
     13 C1         -37.7970  -116.9080   217.5100 c3         1 2TR       0.085800
     14 C11        -39.8660  -115.4180   221.1990 ca         1 2TR       0.252000
     15 C14        -41.3780  -117.0670   223.4690 ca         1 2TR       0.399900
     16 C16        -41.1950  -117.2220   225.7040 ca         1 2TR       0.586900
     17 C18        -40.5740  -115.1860   224.6770 ca         1 2TR       0.217000
     18 C23        -39.7270  -113.5310   228.3600 c5         1 2TR       0.165300
     19 C3         -40.0170  -117.1740   218.4760 c3         1 2TR       0.085800
     20 C9         -41.5480  -113.9070   221.8570 ca         1 2TR      -0.010000
     21 F12        -39.0990  -116.4950   221.4370 f          1 2TR      -0.171000
     22 N15        -41.5280  -117.8060   224.5690 nb         1 2TR      -0.714000
     23 N2         -38.8120  -116.3760   218.3950 n          1 2TR      -0.393800
     24 N27        -41.3150  -117.8000   226.9310 nu         1 2TR      -0.898100
     25 N28        -40.3060  -112.9320   218.5460 nv         1 2TR      -1.073000
     26 O25        -38.7770  -113.0540   229.2810 oh         1 2TR      -0.653000
     27 O5         -37.6340  -114.5020   218.8590 o          1 2TR      -0.613100
     28 CL19       -39.9960  -113.5580   224.7270 cl         1 2TR      -0.187000
     29 H1         -41.9950  -112.3360   220.4850 ha         1 2TR       0.120000
     30 H2         -42.0600  -114.0890   227.0370 hc         1 2TR       0.056700
     31 H3         -42.5310  -115.3670   228.1450 hc         1 2TR       0.056700
     32 H4         -41.6950  -113.0610   229.2280 hc         1 2TR       0.050700
     33 H5         -40.9310  -114.5290   229.8450 hc         1 2TR       0.050700
     34 H6         -38.7130  -115.4090   228.4930 hc         1 2TR       0.063700
     35 H7         -38.5330  -114.6740   226.9120 hc         1 2TR       0.063700
     36 H8         -40.9780  -117.0500   228.8810 h1         1 2TR       0.052200
     37 H9         -39.5130  -117.4270   227.9640 h1         1 2TR       0.052200
     38 H10        -36.8760  -116.3410   217.5960 h1         1 2TR       0.043867
     39 H11        -37.5950  -117.9480   217.7670 h1         1 2TR       0.043867
     40 H12        -38.1350  -116.8730   216.4720 h1         1 2TR       0.043867
     41 H13        -41.6570  -117.5450   222.5360 h4         1 2TR       0.024100
     42 H14        -39.9040  -112.7900   227.5680 h1         1 2TR       0.036700
     43 H15        -40.8220  -116.6350   218.9660 h1         1 2TR       0.043867
     44 H16        -40.3510  -117.4250   217.4680 h1         1 2TR       0.043867
     45 H17        -39.8370  -118.1060   219.0140 h1         1 2TR       0.043867
     46 H18        -42.2880  -113.5680   222.5710 ha         1 2TR       0.122000
     47 H19        -41.3280  -118.8060   226.9980 hn         1 2TR       0.490000
     48 H20        -40.7190  -112.0130   218.5210 hn         1 2TR       0.468500
     49 H21        -39.4030  -112.9550   218.1000 hn         1 2TR       0.468500
     50 H22        -39.0710  -112.1950   229.5980 ho         1 2TR       0.444000
@<TRIPOS>BOND
     1     1     2 1   
     2     1    23 1   
     3     1    27 2   
     4     2     3 ar  
     5     2    14 ar  
     6     3     4 ar  
     7     3    25 1   
     8     4    20 ar  
     9     4    29 1   
    10     5     6 1   
    11     5    14 ar  
    12     5    20 ar  
    13     6    15 ar  
    14     6    17 ar  
    15     7     8 1   
    16     7    16 ar  
    17     7    17 ar  
    18     8     9 1   
    19     8    11 1   
    20     8    12 1   
    21     9    10 1   
    22     9    30 1   
    23     9    31 1   
    24    10    18 1   
    25    10    32 1   
    26    10    33 1   
    27    11    18 1   
    28    11    34 1   
    29    11    35 1   
    30    12    24 1   
    31    12    36 1   
    32    12    37 1   
    33    13    23 1   
    34    13    38 1   
    35    13    39 1   
    36    13    40 1   
    37    14    21 1   
    38    15    22 ar  
    39    15    41 1   
    40    16    22 ar  
    41    16    24 1   
    42    17    28 1   
    43    18    26 1   
    44    18    42 1   
    45    19    23 1   
    46    19    43 1   
    47    19    44 1   
    48    19    45 1   
    49    20    46 1   
    50    24    47 1   
    51    25    48 1   
    52    25    49 1   
    53    26    50 1   
@<TRIPOS>SUBSTRUCTURE
     1 2TR         1 TEMP              0 ****  ****    0 ROOT
