@<TRIPOS>MOLECULE
2TS
   75    77     1     0     0
SMALL
No Charge or Current Charge


@<TRIPOS>ATOM
      1 C1          -4.1490     1.9420    -0.1140 c3         1 2TS      -0.246100
      2 S19         -2.9430     1.8180     1.2210 s6         1 2TS       1.167100
      3 C55         -4.4160     3.3660    -0.5860 ca         1 2TS      -0.084300
      4 C50         -3.6220     3.9380    -1.5990 ca         1 2TS      -0.084500
      5 C51         -3.8680     5.2510    -2.0360 ca         1 2TS      -0.109000
      6 C52         -4.9100     6.0000    -1.4620 ca         1 2TS      -0.099000
      7 C53         -5.7060     5.4330    -0.4520 ca         1 2TS      -0.109000
      8 C54         -5.4600     4.1190    -0.0160 ca         1 2TS      -0.084500
      9 O27         -1.6050     2.1550     0.7350 o          1 2TS      -0.523000
     10 O28         -3.4900     2.4600     2.4180 o          1 2TS      -0.523000
     11 N29         -2.9410     0.1860     1.5540 n7         1 2TS      -0.884300
     12 C28         -2.3270    -0.7720     0.5830 c3         1 2TS       0.148500
     13 C42         -2.9470    -2.1750     0.8040 c3         1 2TS      -0.068400
     14 C43         -4.4520    -2.2580     0.4490 c3         1 2TS      -0.087400
     15 C44         -5.0360    -3.6720     0.6450 c3         1 2TS       0.224800
     16 N45         -6.4620    -3.6950     0.2920 nu         1 2TS      -0.904400
     17 C34         -7.2240    -4.7740     0.3610 c2         1 2TS       0.795100
     18 N39         -8.4050    -4.4160    -0.0640 nv         1 2TS      -1.068200
     19 N38         -6.8370    -5.9090     0.6970 n2         1 2TS      -0.896100
     20 C27         -0.7560    -0.8420     0.6810 c          1 2TS       0.590100
     21 O38         -0.1810    -0.5560     1.7280 o          1 2TS      -0.609100
     22 N25         -0.0100    -1.2800    -0.4380 n          1 2TS      -0.382800
     23 C26          1.4690    -1.4490    -0.3880 c5         1 2TS       0.026700
     24 C21          2.2730    -0.1110    -0.4610 c          1 2TS       0.591100
     25 O39          1.8550     1.0000    -0.7610 o          1 2TS      -0.576100
     26 C22          1.7110    -2.2850    -1.6810 c5         1 2TS      -0.083400
     27 C23          0.6750    -1.6800    -2.6610 c5         1 2TS      -0.092400
     28 C24         -0.5900    -1.5720    -1.7710 c5         1 2TS       0.109000
     29 N19          3.5830    -0.3480    -0.1070 ns         1 2TS      -0.504900
     30 C10          4.6250     0.6760    -0.0800 c3         1 2TS       0.142300
     31 C6           6.0110     0.0420    -0.0440 ca         1 2TS      -0.104300
     32 C5           6.6550    -0.4310    -1.2190 ca         1 2TS      -0.061300
     33 C32          6.0070    -0.3430    -2.6030 c3         1 2TS       0.191100
     34 N33          6.4680     0.8480    -3.3450 n8         1 2TS      -1.005200
     35 C4           7.9370    -1.0110    -1.1170 ca         1 2TS      -0.090000
     36 C3           8.5760    -1.1270     0.1290 ca         1 2TS      -0.100000
     37 C2           7.9370    -0.6640     1.2860 ca         1 2TS       0.116000
     38 Cl1          8.7330    -0.8100     2.8480 cl         1 2TS      -0.205000
     39 C7           6.6620    -0.0830     1.2010 ca         1 2TS      -0.099000
     40 H1          -5.0660     1.4820     0.2680 h1         1 2TS       0.097200
     41 H1A         -3.7650     1.3340    -0.9390 h1         1 2TS       0.097200
     42 H50         -2.8120     3.3660    -2.0480 ha         1 2TS       0.118500
     43 H51         -3.2510     5.6890    -2.8180 ha         1 2TS       0.115500
     44 H52         -5.1010     7.0160    -1.8000 ha         1 2TS       0.114000
     45 H53         -6.5130     6.0110    -0.0080 ha         1 2TS       0.115500
     46 H54         -6.0800     3.6880     0.7670 ha         1 2TS       0.118500
     47 HN29        -2.3740     0.1790     2.4040 hn         1 2TS       0.506000
     48 H28         -2.5760    -0.4710    -0.4420 h1         1 2TS       0.077700
     49 H42         -2.4050    -2.9080     0.1940 hc         1 2TS       0.056200
     50 H42A        -2.8000    -2.4740     1.8500 hc         1 2TS       0.056200
     51 H43         -5.0150    -1.5520     1.0710 hc         1 2TS       0.047700
     52 H43A        -4.5920    -1.9510    -0.5950 hc         1 2TS       0.047700
     53 H44         -4.4810    -4.3830     0.0170 h1         1 2TS       0.052200
     54 H44A        -4.9030    -3.9740     1.6940 h1         1 2TS       0.052200
     55 HN45        -6.7520    -3.0780    -0.4540 hn         1 2TS       0.463000
     56 HN39        -8.6460    -3.4980     0.2810 hn         1 2TS       0.452000
     57 HN3C        -9.1220    -5.1080     0.1070 hn         1 2TS       0.452000
     58 HN38        -7.6310    -6.5490     0.6030 hn         1 2TS       0.380400
     59 H26          1.7820    -1.9970     0.5100 h1         1 2TS       0.076700
     60 H22          2.7400    -2.2200    -2.0560 hc         1 2TS       0.059200
     61 H22A         1.5030    -3.3470    -1.5020 hc         1 2TS       0.059200
     62 H23          0.9920    -0.6920    -3.0170 hc         1 2TS       0.065200
     63 H23A         0.5100    -2.3050    -3.5460 hc         1 2TS       0.065200
     64 H24         -1.1450    -2.5200    -1.7540 h1         1 2TS       0.051200
     65 H24A        -1.2580    -0.7780    -2.1280 h1         1 2TS       0.051200
     66 HN19         3.8370    -1.2980     0.1360 hn         1 2TS       0.313500
     67 H10          4.5270     1.3240    -0.9610 h1         1 2TS       0.067200
     68 H10A         4.4760     1.3040     0.8080 h1         1 2TS       0.067200
     69 H32          6.2680    -1.2390    -3.1830 h1         1 2TS       0.046200
     70 H32A         4.9120    -0.3170    -2.5220 h1         1 2TS       0.046200
     71 HN33         5.9540     0.9090    -4.2330 hn         1 2TS       0.399500
     72 HN3A         6.1770     1.6900    -2.8360 hn         1 2TS       0.399500
     73 H4           8.4410    -1.3730    -2.0110 ha         1 2TS       0.139000
     74 H3           9.5640    -1.5760     0.1960 ha         1 2TS       0.130000
     75 H7           6.1790     0.2690     2.1090 ha         1 2TS       0.128000
@<TRIPOS>BOND
     1     1     2 1   
     2     1     3 1   
     3     1    40 1   
     4     1    41 1   
     5     2     9 2   
     6     2    10 2   
     7     2    11 1   
     8     3     4 ar  
     9     3     8 ar  
    10     4     5 ar  
    11     4    42 1   
    12     5     6 ar  
    13     5    43 1   
    14     6     7 ar  
    15     6    44 1   
    16     7     8 ar  
    17     7    45 1   
    18     8    46 1   
    19    11    12 1   
    20    11    47 1   
    21    12    13 1   
    22    12    20 1   
    23    12    48 1   
    24    13    14 1   
    25    13    49 1   
    26    13    50 1   
    27    14    15 1   
    28    14    51 1   
    29    14    52 1   
    30    15    16 1   
    31    15    53 1   
    32    15    54 1   
    33    16    17 1   
    34    16    55 1   
    35    17    18 1   
    36    17    19 2   
    37    18    56 1   
    38    18    57 1   
    39    19    58 1   
    40    20    21 2   
    41    20    22 1   
    42    22    23 1   
    43    22    28 1   
    44    23    24 1   
    45    23    26 1   
    46    23    59 1   
    47    24    25 2   
    48    24    29 1   
    49    26    27 1   
    50    26    60 1   
    51    26    61 1   
    52    27    28 1   
    53    27    62 1   
    54    27    63 1   
    55    28    64 1   
    56    28    65 1   
    57    29    30 1   
    58    29    66 1   
    59    30    31 1   
    60    30    67 1   
    61    30    68 1   
    62    31    32 ar  
    63    31    39 ar  
    64    32    33 1   
    65    32    35 ar  
    66    33    34 1   
    67    33    69 1   
    68    33    70 1   
    69    34    71 1   
    70    34    72 1   
    71    35    36 ar  
    72    35    73 1   
    73    36    37 ar  
    74    36    74 1   
    75    37    38 1   
    76    37    39 ar  
    77    39    75 1   
@<TRIPOS>SUBSTRUCTURE
     1 2TS         1 TEMP              0 ****  ****    0 ROOT
