@<TRIPOS>MOLECULE
2TS
   75    77     1     0     0
SMALL
bcc


@<TRIPOS>ATOM
      1 C1          -4.1700     2.0040    -0.0400 c3         1 2TS      -0.135300
      2 S19         -2.5750     1.6510     0.7090 s6         1 2TS       1.197900
      3 C55         -4.1760     3.3970    -0.5840 ca         1 2TS      -0.084300
      4 C50         -3.7940     3.6410    -1.9000 ca         1 2TS      -0.102500
      5 C51         -3.7800     4.9360    -2.3970 ca         1 2TS      -0.127000
      6 C52         -4.1390     6.0000    -1.5790 ca         1 2TS      -0.117000
      7 C53         -4.5160     5.7630    -0.2630 ca         1 2TS      -0.127000
      8 C54         -4.5310     4.4670     0.2340 ca         1 2TS      -0.102500
      9 O27         -1.5590     1.7820    -0.3260 o          1 2TS      -0.593800
     10 O28         -2.4510     2.4280     1.9340 o          1 2TS      -0.593800
     11 N29         -2.7420     0.0620     1.1440 n7         1 2TS      -0.829100
     12 C28         -2.1970    -0.9500     0.2570 c3         1 2TS       0.148500
     13 C42         -2.8630    -2.2990     0.5410 c3         1 2TS      -0.068400
     14 C43         -4.3640    -2.2710     0.2950 c3         1 2TS      -0.087400
     15 C44         -4.9950    -3.6380     0.5060 c3         1 2TS       0.224800
     16 N45         -6.4250    -3.5580     0.3190 nu         1 2TS      -0.849200
     17 C34         -7.1900    -4.6920     0.2750 c2         1 2TS       0.795100
     18 N39         -8.5480    -4.4490     0.2390 nv         1 2TS      -0.957800
     19 N38         -6.6390    -5.8470     0.1860 n2         1 2TS      -0.896100
     20 C27         -0.6840    -1.0700     0.4370 c          1 2TS       0.657100
     21 O38         -0.1660    -0.7940     1.5100 o          1 2TS      -0.609100
     22 N25          0.0200    -1.5650    -0.5880 n          1 2TS      -0.449800
     23 C26          1.4420    -1.7930    -0.4340 c5         1 2TS       0.026700
     24 C21          2.1830    -0.4670    -0.2880 c          1 2TS       0.658100
     25 O39          1.7920     0.5490    -0.8360 o          1 2TS      -0.576100
     26 C22          1.8220    -2.5130    -1.7340 c5         1 2TS      -0.083400
     27 C23          0.8330    -1.9620    -2.7540 c5         1 2TS      -0.092400
     28 C24         -0.4520    -1.7940    -1.9520 c5         1 2TS       0.109000
     29 N19          3.3120    -0.5460     0.4390 ns         1 2TS      -0.571900
     30 C10          4.1940     0.5690     0.7040 c3         1 2TS       0.142300
     31 C6           5.6320     0.2520     0.3800 ca         1 2TS      -0.104300
     32 C5           6.0750     0.0560    -0.9370 ca         1 2TS      -0.061300
     33 C32          5.1210     0.1420    -2.1040 c3         1 2TS       0.191100
     34 N33          5.8050     0.2660    -3.3770 n8         1 2TS      -0.894800
     35 C4           7.4190    -0.2340    -1.1480 ca         1 2TS      -0.108000
     36 C3           8.3210    -0.3340    -0.0980 ca         1 2TS      -0.118000
     37 C2           7.8650    -0.1400     1.1920 ca         1 2TS       0.024400
     38 CL1          8.9680    -0.2570     2.5260 cl         1 2TS      -0.113400
     39 C7           6.5320     0.1500     1.4350 ca         1 2TS      -0.117000
     40 H1          -4.9170     1.8520     0.7400 h1         1 2TS       0.097200
     41 H1A         -4.3260     1.2540    -0.8180 h1         1 2TS       0.097200
     42 H50         -3.5180     2.8140    -2.5420 ha         1 2TS       0.136500
     43 H51         -3.4890     5.1170    -3.4230 ha         1 2TS       0.133500
     44 H52         -4.1280     7.0100    -1.9660 ha         1 2TS       0.132000
     45 H53         -4.7980     6.5880     0.3780 ha         1 2TS       0.133500
     46 H54         -4.8290     4.2860     1.2590 ha         1 2TS       0.136500
     47 HN29        -2.5140    -0.0780     2.1230 hn         1 2TS       0.450800
     48 H28         -2.4410    -0.6670    -0.7690 h1         1 2TS       0.077700
     49 H42         -2.4000    -3.0540    -0.0990 hc         1 2TS       0.056200
     50 H42A        -2.6510    -2.6000     1.5720 hc         1 2TS       0.056200
     51 H43         -4.8300    -1.5410     0.9630 hc         1 2TS       0.047700
     52 H43A        -4.5620    -1.9340    -0.7270 hc         1 2TS       0.047700
     53 H44         -4.5880    -4.3510    -0.2110 h1         1 2TS       0.052200
     54 H44A        -4.7380    -4.0180     1.5040 h1         1 2TS       0.052200
     55 HN45        -6.8600    -2.7430     0.7220 hn         1 2TS       0.407800
     56 HN39        -8.8710    -3.5730     0.6190 hn         1 2TS       0.396800
     57 HN3C        -9.1270    -5.2200     0.5300 hn         1 2TS       0.396800
     58 HN38        -7.3440    -6.5700     0.0950 hn         1 2TS       0.380400
     59 H26          1.6350    -2.4290     0.4340 h1         1 2TS       0.076700
     60 H22          2.8650    -2.3580    -2.0130 hc         1 2TS       0.059200
     61 H22A         1.6780    -3.5860    -1.6000 hc         1 2TS       0.059200
     62 H23          1.1690    -0.9960    -3.1310 hc         1 2TS       0.065200
     63 H23A         0.6960    -2.6240    -3.6070 hc         1 2TS       0.065200
     64 H24         -1.0720    -2.6940    -1.9990 h1         1 2TS       0.051200
     65 H24A        -1.0470    -0.9570    -2.3160 h1         1 2TS       0.051200
     66 HN19         3.5180    -1.4130     0.9110 hn         1 2TS       0.313500
     67 H10          3.8420     1.4230     0.1260 h1         1 2TS       0.067200
     68 H10A         4.1170     0.8520     1.7560 h1         1 2TS       0.067200
     69 H32          4.5310    -0.7790    -2.1290 h1         1 2TS       0.046200
     70 H32A         4.3980     0.9480    -1.9220 h1         1 2TS       0.046200
     71 HN33         5.1310     0.1650    -4.1240 hn         1 2TS       0.344300
     72 HN3A         6.1860     1.1990    -3.4690 hn         1 2TS       0.344300
     73 H4           7.7700    -0.3820    -2.1600 ha         1 2TS       0.157000
     74 H3           9.3620    -0.5590    -0.2910 ha         1 2TS       0.148000
     75 H7           6.1860     0.3020     2.4490 ha         1 2TS       0.146000
@<TRIPOS>BOND
     1     1     2 1   
     2     1     3 1   
     3     1    40 1   
     4     1    41 1   
     5     2     9 2   
     6     2    10 2   
     7     2    11 1   
     8     3     4 ar  
     9     3     8 ar  
    10     4     5 ar  
    11     4    42 1   
    12     5     6 ar  
    13     5    43 1   
    14     6     7 ar  
    15     6    44 1   
    16     7     8 ar  
    17     7    45 1   
    18     8    46 1   
    19    11    12 1   
    20    11    47 1   
    21    12    13 1   
    22    12    20 1   
    23    12    48 1   
    24    13    14 1   
    25    13    49 1   
    26    13    50 1   
    27    14    15 1   
    28    14    51 1   
    29    14    52 1   
    30    15    16 1   
    31    15    53 1   
    32    15    54 1   
    33    16    17 1   
    34    16    55 1   
    35    17    18 1   
    36    17    19 2   
    37    18    56 1   
    38    18    57 1   
    39    19    58 1   
    40    20    21 2   
    41    20    22 1   
    42    22    23 1   
    43    22    28 1   
    44    23    24 1   
    45    23    26 1   
    46    23    59 1   
    47    24    25 2   
    48    24    29 1   
    49    26    27 1   
    50    26    60 1   
    51    26    61 1   
    52    27    28 1   
    53    27    62 1   
    54    27    63 1   
    55    28    64 1   
    56    28    65 1   
    57    29    30 1   
    58    29    66 1   
    59    30    31 1   
    60    30    67 1   
    61    30    68 1   
    62    31    32 ar  
    63    31    39 ar  
    64    32    33 1   
    65    32    35 ar  
    66    33    34 1   
    67    33    69 1   
    68    33    70 1   
    69    34    71 1   
    70    34    72 1   
    71    35    36 ar  
    72    35    73 1   
    73    36    37 ar  
    74    36    74 1   
    75    37    38 1   
    76    37    39 ar  
    77    39    75 1   
@<TRIPOS>SUBSTRUCTURE
     1 2TS         1 TEMP              0 ****  ****    0 ROOT
