@<TRIPOS>MOLECULE
2TT
   36    38     1     0     0
SMALL
No Charge or Current Charge


@<TRIPOS>ATOM
      1 C7          -3.4650     0.4380     0.0320 ca         1 2TT      -0.155600
      2 C2          -4.8020     0.1960    -0.3900 ca         1 2TT       0.161000
      3 C4          -5.5060     2.3630     0.4880 ca         1 2TT      -0.080000
      4 C6          -3.1830     1.6690     0.6820 ca         1 2TT      -0.082000
      5 Cl1         -5.2920    -1.2560    -1.2680 cl         1 2TT      -0.170000
      6 C3          -5.8040     1.1560    -0.1600 ca         1 2TT      -0.110000
      7 C5          -4.1940     2.6180     0.9070 ca         1 2TT      -0.114000
      8 C8          -2.3530    -0.5750    -0.1860 c          1 2TT       0.627700
      9 O9          -2.5650    -1.7780    -0.2780 o          1 2TT      -0.541100
     10 N10         -1.0710    -0.0380    -0.2070 ns         1 2TT      -0.144000
     11 C11          0.2120    -0.6280    -0.3570 ca         1 2TT       0.046000
     12 C12          0.4410    -2.0000    -0.5750 ca         1 2TT      -0.219000
     13 C13          1.7580    -2.4680    -0.6950 ca         1 2TT       0.389900
     14 N14          2.8370    -1.6610    -0.6210 nb         1 2TT      -0.689000
     15 C15          2.6180    -0.3460    -0.4430 ca         1 2TT       0.512900
     16 N16          3.7550     0.4580    -0.3100 ns         1 2TT      -0.329900
     17 C17          5.0100     0.3350    -0.8600 c          1 2TT       0.643100
     18 O18          5.3410    -0.5260    -1.6640 o          1 2TT      -0.535100
     19 C19          5.9670     1.4130    -0.4050 cx         1 2TT      -0.255700
     20 C20          6.3260     1.5000     1.0660 cx         1 2TT      -0.095900
     21 C21          7.3510     1.0120     0.0700 cx         1 2TT      -0.095900
     22 C22          1.3390     0.2030    -0.2840 ca         1 2TT      -0.287000
     23 H1          -6.2880     3.0990     0.6610 ha         1 2TT       0.123000
     24 H2          -2.1830     1.9000     1.0430 ha         1 2TT       0.122000
     25 H3          -6.8200     0.9620    -0.4940 ha         1 2TT       0.135000
     26 H4          -3.9590     3.5520     1.4120 ha         1 2TT       0.123000
     27 H5          -1.0450     0.9680    -0.1130 hn         1 2TT       0.157000
     28 H6          -0.3660    -2.7190    -0.6490 ha         1 2TT       0.158000
     29 H7           1.9560    -3.5280    -0.8540 h4         1 2TT       0.026100
     30 H8           3.6250     1.2640     0.2850 hn         1 2TT       0.150000
     31 H9           5.8890     2.3500    -0.9490 hc         1 2TT       0.081700
     32 H10          6.4690     2.4890     1.4970 hc         1 2TT       0.082950
     33 H11          5.8990     0.7670     1.7480 hc         1 2TT       0.082950
     34 H12          7.6060    -0.0460     0.0840 hc         1 2TT       0.082950
     35 H13          8.1810     1.6740    -0.1680 hc         1 2TT       0.082950
     36 H14          1.2300     1.2700    -0.1090 ha         1 2TT       0.115000
@<TRIPOS>BOND
     1     1     2 ar  
     2     1     4 ar  
     3     1     8 1   
     4     2     5 1   
     5     2     6 ar  
     6     3     6 ar  
     7     3     7 ar  
     8     3    23 1   
     9     4     7 ar  
    10     4    24 1   
    11     6    25 1   
    12     7    26 1   
    13     8     9 2   
    14     8    10 1   
    15    10    11 1   
    16    10    27 1   
    17    11    12 ar  
    18    11    22 ar  
    19    12    13 ar  
    20    12    28 1   
    21    13    14 ar  
    22    13    29 1   
    23    14    15 ar  
    24    15    16 1   
    25    15    22 ar  
    26    16    17 1   
    27    16    30 1   
    28    17    18 2   
    29    17    19 1   
    30    19    20 1   
    31    19    21 1   
    32    19    31 1   
    33    20    21 1   
    34    20    32 1   
    35    20    33 1   
    36    21    34 1   
    37    21    35 1   
    38    22    36 1   
@<TRIPOS>SUBSTRUCTURE
     1 2TT         1 TEMP              0 ****  ****    0 ROOT
