@<TRIPOS>MOLECULE
2TT
   36    38     1     0     0
SMALL
bcc


@<TRIPOS>ATOM
      1 C7          -3.4390     0.5100    -0.0560 ca         1 2TT      -0.155600
      2 C2          -4.4330     0.5680    -1.0300 ca         1 2TT       0.069400
      3 C4          -5.5350     2.3360     0.1540 ca         1 2TT      -0.098000
      4 C6          -3.5100     1.3890     1.0230 ca         1 2TT      -0.100000
      5 CL1         -4.3650    -0.4610    -2.4190 cl         1 2TT      -0.078400
      6 C3          -5.4720     1.4790    -0.9350 ca         1 2TT      -0.128000
      7 C5          -4.5550     2.2930     1.1350 ca         1 2TT      -0.132000
      8 C8          -2.3460    -0.5110    -0.1100 c          1 2TT       0.694700
      9 O9          -2.5810    -1.6970    -0.2050 o          1 2TT      -0.541100
     10 N10         -1.1010     0.0300    -0.0250 ns         1 2TT      -0.470100
     11 C11          0.1290    -0.6150    -0.0070 ca         1 2TT       0.138600
     12 C12          0.3070    -2.0010    -0.0130 ca         1 2TT      -0.302300
     13 C13          1.6060    -2.4730     0.0040 ca         1 2TT       0.455200
     14 N14          2.6990    -1.7190     0.0310 nb         1 2TT      -0.689000
     15 C15          2.5200    -0.4080     0.0320 ca         1 2TT       0.578200
     16 N16          3.6250     0.4350     0.0810 ns         1 2TT      -0.563400
     17 C17          4.9350     0.1580    -0.2030 c          1 2TT       0.710100
     18 O18          5.3430    -0.9260    -0.5670 o          1 2TT      -0.535100
     19 C19          5.8290     1.3330    -0.0260 cx         1 2TT      -0.255700
     20 C20          7.2390     1.0720     0.4380 cx         1 2TT      -0.095900
     21 C21          6.9970     1.4730    -0.9690 cx         1 2TT      -0.095900
     22 C22          1.2620     0.1900     0.0120 ca         1 2TT      -0.370300
     23 H1          -6.3530     3.0400     0.2280 ha         1 2TT       0.141000
     24 H2          -2.7520     1.3510     1.7940 ha         1 2TT       0.140000
     25 H3          -6.2270     1.5200    -1.7080 ha         1 2TT       0.153000
     26 H4          -4.6020     2.9590     1.9850 ha         1 2TT       0.141000
     27 H5          -1.0540     1.0390    -0.0230 hn         1 2TT       0.323500
     28 H6          -0.5130    -2.6960    -0.0290 ha         1 2TT       0.176000
     29 H7           1.7710    -3.5450     0.0030 h4         1 2TT       0.026100
     30 H8           3.4130     1.4010     0.2770 hn         1 2TT       0.316500
     31 H9           5.3690     2.2530     0.3160 hc         1 2TT       0.081700
     32 H10          7.6670     1.7960     1.1190 hc         1 2TT       0.082950
     33 H11          7.5100     0.0440     0.6380 hc         1 2TT       0.082950
     34 H12          7.1040     0.7240    -1.7420 hc         1 2TT       0.082950
     35 H13          7.2550     2.4790    -1.2720 hc         1 2TT       0.082950
     36 H14          1.1700     1.2690     0.0080 ha         1 2TT       0.133000
@<TRIPOS>BOND
     1     1     2 ar  
     2     1     4 ar  
     3     1     8 1   
     4     2     5 1   
     5     2     6 ar  
     6     3     6 ar  
     7     3     7 ar  
     8     3    23 1   
     9     4     7 ar  
    10     4    24 1   
    11     6    25 1   
    12     7    26 1   
    13     8     9 2   
    14     8    10 1   
    15    10    11 1   
    16    10    27 1   
    17    11    12 ar  
    18    11    22 ar  
    19    12    13 ar  
    20    12    28 1   
    21    13    14 ar  
    22    13    29 1   
    23    14    15 ar  
    24    15    16 1   
    25    15    22 ar  
    26    16    17 1   
    27    16    30 1   
    28    17    18 2   
    29    17    19 1   
    30    19    20 1   
    31    19    21 1   
    32    19    31 1   
    33    20    21 1   
    34    20    32 1   
    35    20    33 1   
    36    21    34 1   
    37    21    35 1   
    38    22    36 1   
@<TRIPOS>SUBSTRUCTURE
     1 2TT         1 TEMP              0 ****  ****    0 ROOT
