@<TRIPOS>MOLECULE
2TU
   29    30     1     0     0
SMALL
No Charge or Current Charge


@<TRIPOS>ATOM
      1 N1          -0.7760     0.0670     0.0960 n          1 2TU      -0.249000
      2 C2          -1.9180    -0.7280     0.2190 cs         1 2TU       0.454400
      3 S2          -1.9230    -2.3580     0.5920 s          1 2TU      -0.550400
      4 N3          -3.1120    -0.0970     0.0210 ns         1 2TU      -0.408500
      5 C4          -3.3670     1.2030    -0.2710 c          1 2TU       0.574200
      6 O4          -4.4960     1.6360    -0.4250 o          1 2TU      -0.510000
      7 C5          -2.1590     1.9990    -0.3710 cc         1 2TU      -0.363200
      8 C6          -0.9210     1.4350    -0.1870 cd         1 2TU      -0.013400
      9 C1           0.5870    -0.5120     0.2630 c5         1 2TU       0.317700
     10 C7           1.2270    -0.6730    -1.1560 c5         1 2TU       0.139300
     11 O2           0.8060    -1.8360    -1.8820 oh         1 2TU      -0.662000
     12 C3           2.7100    -0.8120    -0.7130 c5         1 2TU       0.101300
     13 O3           2.9500    -2.1200    -0.1550 oh         1 2TU      -0.680000
     14 C8           2.7900     0.3350     0.3580 c5         1 2TU       0.127300
     15 O1           1.4690     0.3880     0.9730 os         1 2TU      -0.430000
     16 C9           3.1320     1.7250    -0.2570 c3         1 2TU       0.148600
     17 O5           3.3660     2.7070     0.7670 oh         1 2TU      -0.698000
     18 HN3         -3.9330    -0.6770     0.1070 hn         1 2TU       0.360500
     19 H5          -2.2970     3.0510    -0.5950 ha         1 2TU       0.224000
     20 H6           0.0130     1.9900    -0.2450 h4         1 2TU       0.212000
     21 H1           0.5230    -1.4750     0.7860 h2         1 2TU       0.153700
     22 H2           1.0780     0.2290    -1.7640 h1         1 2TU       0.036700
     23 HO2          1.3850    -2.5590    -1.5370 ho         1 2TU       0.513000
     24 H3           3.3950    -0.6250    -1.5530 h1         1 2TU       0.052700
     25 HO3          3.9140    -2.1890     0.0450 ho         1 2TU       0.509000
     26 H4           3.5400     0.1060     1.1270 h1         1 2TU       0.091700
     27 H7           4.0330     1.6180    -0.8770 h1         1 2TU       0.020200
     28 H5'A         2.3160     2.0460    -0.9170 h1         1 2TU       0.020200
     29 HO5          3.5700     3.5580     0.3130 ho         1 2TU       0.508000
@<TRIPOS>BOND
     1     1     2 1   
     2     1     8 1   
     3     1     9 1   
     4     2     3 2   
     5     2     4 1   
     6     4     5 1   
     7     4    18 1   
     8     5     6 2   
     9     5     7 1   
    10     7     8 2   
    11     7    19 1   
    12     8    20 1   
    13     9    10 1   
    14     9    15 1   
    15     9    21 1   
    16    10    11 1   
    17    10    12 1   
    18    10    22 1   
    19    11    23 1   
    20    12    13 1   
    21    12    14 1   
    22    12    24 1   
    23    13    25 1   
    24    14    15 1   
    25    14    16 1   
    26    14    26 1   
    27    16    17 1   
    28    16    27 1   
    29    16    28 1   
    30    17    29 1   
@<TRIPOS>SUBSTRUCTURE
     1 2TU         1 TEMP              0 ****  ****    0 ROOT
