@<TRIPOS>MOLECULE
2TU
   29    30     1     0     0
SMALL
abcg2


@<TRIPOS>ATOM
      1 N1          -0.7410     0.0250     0.0790 n          1 2TU      -0.249000
      2 C2          -1.8760    -0.6760     0.3660 cs         1 2TU       0.454400
      3 S2          -1.9240    -2.2480     0.9120 s          1 2TU      -0.550400
      4 N3          -3.0330     0.0050     0.1780 ns         1 2TU      -0.408500
      5 C4          -3.2080     1.3130    -0.2590 c          1 2TU       0.574200
      6 O4          -4.3220     1.7810    -0.3740 o          1 2TU      -0.510000
      7 C5          -1.9620     1.9830    -0.5340 cc         1 2TU      -0.363200
      8 C6          -0.8100     1.3240    -0.3530 cd         1 2TU      -0.013400
      9 C1           0.5820    -0.5860     0.2270 c5         1 2TU       0.317700
     10 C7           1.2980    -0.8220    -1.1020 c5         1 2TU       0.139300
     11 O2           0.8310    -1.9880    -1.6940 oh         1 2TU      -0.662000
     12 C3           2.7560    -0.8130    -0.6420 c5         1 2TU       0.101300
     13 O3           3.0320    -2.0630    -0.0690 oh         1 2TU      -0.680000
     14 C8           2.7200     0.3130     0.3940 c5         1 2TU       0.127300
     15 O1           1.4000     0.2780     0.9560 os         1 2TU      -0.430000
     16 C9           3.0230     1.6690    -0.2100 c3         1 2TU       0.148600
     17 O5           2.8730     2.6470     0.7870 oh         1 2TU      -0.698000
     18 HN3         -3.8770    -0.5150     0.3880 hn         1 2TU       0.360500
     19 H5          -1.9630     3.0070    -0.8740 ha         1 2TU       0.224000
     20 H6           0.1350     1.8140    -0.5350 h4         1 2TU       0.212000
     21 H1           0.4230    -1.5320     0.7480 h2         1 2TU       0.153700
     22 H2           1.1530     0.0490    -1.7580 h1         1 2TU       0.036700
     23 HO2          1.1680    -2.0320    -2.5950 ho         1 2TU       0.513000
     24 H3           3.4460    -0.5820    -1.4630 h1         1 2TU       0.052700
     25 HO3          3.9290    -2.0470     0.2800 ho         1 2TU       0.509000
     26 H4           3.4330     0.1230     1.2020 h1         1 2TU       0.091700
     27 H7           4.0470     1.6330    -0.6050 h1         1 2TU       0.020200
     28 H5'A         2.3650     1.8610    -1.0690 h1         1 2TU       0.020200
     29 HO5          3.0030     3.5100     0.3830 ho         1 2TU       0.508000
@<TRIPOS>BOND
     1     1     2 1   
     2     1     8 1   
     3     1     9 1   
     4     2     3 2   
     5     2     4 1   
     6     4     5 1   
     7     4    18 1   
     8     5     6 2   
     9     5     7 1   
    10     7     8 2   
    11     7    19 1   
    12     8    20 1   
    13     9    10 1   
    14     9    15 1   
    15     9    21 1   
    16    10    11 1   
    17    10    12 1   
    18    10    22 1   
    19    11    23 1   
    20    12    13 1   
    21    12    14 1   
    22    12    24 1   
    23    13    25 1   
    24    14    15 1   
    25    14    16 1   
    26    14    26 1   
    27    16    17 1   
    28    16    27 1   
    29    16    28 1   
    30    17    29 1   
@<TRIPOS>SUBSTRUCTURE
     1 2TU         1 TEMP              0 ****  ****    0 ROOT
