@<TRIPOS>MOLECULE
2TV
   31    31     1     0     0
SMALL
abcg2


@<TRIPOS>ATOM
      1 CAB         -5.7600     1.7410    -0.2380 c3         1 2TV      -0.156100
      2 CAP         -4.9230     0.5060    -0.2790 c          1 2TV       0.600100
      3 OAD         -5.2980    -0.6070    -0.5130 o          1 2TV      -0.450000
      4 OAN         -3.6270     0.8010    -0.0020 os         1 2TV      -0.376200
      5 CAI         -2.6960    -0.1850     0.0270 c2         1 2TV       0.029100
      6 CAR         -1.4160     0.1140     0.2720 ce         1 2TV      -0.256800
      7 CAJ         -0.9580     1.5150     0.5210 c6         1 2TV       0.133800
      8 SAO          0.5530     1.8330    -0.4290 ss         1 2TV      -0.537000
      9 CAS         -0.4150    -0.9660     0.2830 ce         1 2TV       0.456600
     10 CAQ         -0.8750    -2.4310     0.2940 c          1 2TV       0.634700
     11 OAF         -1.6230    -2.7370     1.2390 o          1 2TV      -0.689000
     12 OAE         -0.4360    -3.1530    -0.6120 o          1 2TV      -0.689000
     13 NAL          0.8460    -0.7970     0.3380 n2         1 2TV      -0.631900
     14 CAU          1.4820     0.4810     0.3670 c6         1 2TV       0.284500
     15 CAV          2.8480     0.3770    -0.3300 c3         1 2TV       0.005700
     16 NAK          3.5750    -0.7280     0.2390 ns         1 2TV      -0.475900
     17 CAH          4.8600    -0.9260    -0.0640 c          1 2TV       0.592900
     18 OAC          5.5280    -0.1500    -0.7300 o          1 2TV      -0.645100
     19 CAT          3.6030     1.6850    -0.1230 c          1 2TV       0.591900
     20 OAG          4.0200     2.0320     0.9500 o          1 2TV      -0.523100
     21 H1          -6.7870     1.5100    -0.5020 hc         1 2TV       0.066033
     22 H2          -5.7370     2.1780     0.7610 hc         1 2TV       0.066033
     23 H3          -5.3700     2.4910    -0.9270 hc         1 2TV       0.066033
     24 H7          -1.6930     2.2570     0.2180 h1         1 2TV       0.067700
     25 H8          -0.7430     1.6770     1.5800 h1         1 2TV       0.067700
     26 H10          1.6570     0.7620     1.4120 h2         1 2TV       0.079700
     27 H11          2.6910     0.2270    -1.4040 h1         1 2TV       0.077700
     28 H12          3.0380    -1.4690     0.6670 hn         1 2TV       0.358500
     29 H13          5.2630    -1.8570     0.3570 h5         1 2TV       0.007200
     30 H14          3.6980     2.3190    -1.0190 h4         1 2TV      -0.003800
     31 H4          -3.0530    -1.1910    -0.1440 h4         1 2TV       0.244000
@<TRIPOS>BOND
     1     1     2 1   
     2     1    21 1   
     3     1    22 1   
     4     1    23 1   
     5     2     3 2   
     6     2     4 1   
     7     4     5 1   
     8     5     6 2   
     9     5    31 1   
    10     6     7 1   
    11     6     9 1   
    12     7     8 1   
    13     7    24 1   
    14     7    25 1   
    15     8    14 1   
    16     9    10 1   
    17     9    13 2   
    18    10    11 1   
    19    10    12 1   
    20    13    14 1   
    21    14    15 1   
    22    14    26 1   
    23    15    16 1   
    24    15    19 1   
    25    15    27 1   
    26    16    17 1   
    27    16    28 1   
    28    17    18 2   
    29    17    29 1   
    30    19    20 2   
    31    19    30 1   
@<TRIPOS>SUBSTRUCTURE
     1 2TV         1 TEMP              0 ****  ****    0 ROOT
