@<TRIPOS>MOLECULE
2TV
   31    31     1     0     0
SMALL
No Charge or Current Charge


@<TRIPOS>ATOM
      1 CAB         -5.8150     1.7790    -0.5580 c3         1 2TV      -0.156100
      2 CAP         -4.9400     0.5320    -0.5740 c          1 2TV       0.600100
      3 OAD         -5.3270    -0.5620    -0.9620 o          1 2TV      -0.450000
      4 OAN         -3.6760     0.7970    -0.1080 os         1 2TV      -0.376200
      5 CAI         -2.7130    -0.1840    -0.0310 c2         1 2TV       0.029100
      6 CAR         -1.4510     0.0610     0.3950 ce         1 2TV      -0.256800
      7 CAJ         -1.0240     1.4690     0.8270 c6         1 2TV       0.133800
      8 SAO          0.5080     1.9580    -0.0560 ss         1 2TV      -0.537000
      9 CAS         -0.4140    -1.0100     0.4960 ce         1 2TV       0.456600
     10 CAQ         -0.7670    -2.4480     0.9790 c          1 2TV       0.634700
     11 OAF         -1.9040    -2.6880     1.3770 o          1 2TV      -0.689000
     12 OAE          0.0990    -3.3230     0.9820 o          1 2TV      -0.689000
     13 NAL          0.7970    -0.7560     0.0570 n2         1 2TV      -0.631900
     14 CAU          1.4800     0.4860     0.4180 c6         1 2TV       0.284500
     15 CAV          2.8810     0.5250    -0.2580 c3         1 2TV       0.005700
     16 NAK          3.6770    -0.7150    -0.0420 ns         1 2TV      -0.475900
     17 CAH          4.7700    -1.0820    -0.7940 c          1 2TV       0.592900
     18 OAC          5.2260    -0.3720    -1.6840 o          1 2TV      -0.645100
     19 CAT          3.6690     1.7790     0.1790 c          1 2TV       0.591900
     20 OAG          4.5310     1.7850     1.0560 o          1 2TV      -0.523100
     21 H1          -6.8270     1.5900    -0.9320 hc         1 2TV       0.066033
     22 H2          -5.8240     2.1910     0.4560 hc         1 2TV       0.066033
     23 H3          -5.3120     2.5700    -1.1250 hc         1 2TV       0.066033
     24 H7          -1.7990     2.2180     0.6080 h1         1 2TV       0.067700
     25 H8          -0.8280     1.4890     1.9090 h1         1 2TV       0.067700
     26 H10          1.6120     0.5200     1.5120 h2         1 2TV       0.079700
     27 H11          2.7130     0.6290    -1.3380 h1         1 2TV       0.077700
     28 H12          3.3500    -1.3910     0.6400 hn         1 2TV       0.358500
     29 H13          5.1810    -2.0680    -0.5070 h5         1 2TV       0.007200
     30 H14          3.4150     2.7120    -0.3720 h4         1 2TV      -0.003800
     31 H4          -3.0390    -1.1820    -0.3430 h4         1 2TV       0.244000
@<TRIPOS>BOND
     1     1     2 1   
     2     1    21 1   
     3     1    22 1   
     4     1    23 1   
     5     2     3 2   
     6     2     4 1   
     7     4     5 1   
     8     5     6 2   
     9     5    31 1   
    10     6     7 1   
    11     6     9 1   
    12     7     8 1   
    13     7    24 1   
    14     7    25 1   
    15     8    14 1   
    16     9    10 1   
    17     9    13 2   
    18    10    11 1   
    19    10    12 1   
    20    13    14 1   
    21    14    15 1   
    22    14    26 1   
    23    15    16 1   
    24    15    19 1   
    25    15    27 1   
    26    16    17 1   
    27    16    28 1   
    28    17    18 2   
    29    17    29 1   
    30    19    20 2   
    31    19    30 1   
@<TRIPOS>SUBSTRUCTURE
     1 2TV         1 TEMP              0 ****  ****    0 ROOT
