@<TRIPOS>MOLECULE
2TW
   67    70     1     0     0
SMALL
No Charge or Current Charge


@<TRIPOS>ATOM
      1 C14          3.1770     1.0400    -1.2470 ca         1 2TW      -0.078000
      2 C13          3.8390     1.0760    -2.4850 ca         1 2TW       0.113000
      3 Cl2          5.5000     0.5110    -2.6070 cl         1 2TW      -0.226000
      4 C12          3.1780     1.5560    -3.6270 ca         1 2TW      -0.109000
      5 C11          1.8480     2.0010    -3.5310 ca         1 2TW      -0.116000
      6 C10          1.1830     1.9650    -2.2930 ca         1 2TW      -0.072000
      7 C9           1.8440     1.4870    -1.1420 ca         1 2TW      -0.058300
      8 C8           1.1160     1.4190     0.2040 c6         1 2TW       0.209600
      9 O1           0.4680     2.6870     0.4480 os         1 2TW      -0.397000
     10 C23         -0.2590     2.7490     1.6990 c6         1 2TW       0.117300
     11 C25          0.6960     2.6650     2.9350 c3         1 2TW      -0.239400
     12 C26          1.7610     3.7610     2.8840 c          1 2TW       0.727000
     13 O4           1.4510     4.8740     3.2810 o          1 2TW      -0.727000
     14 O3           2.8610     3.4810     2.4340 o          1 2TW      -0.727000
     15 C24         -1.3680     1.6670     1.7440 c          1 2TW       0.545000
     16 O2          -2.4730     1.9420     2.1970 o          1 2TW      -0.584000
     17 N1          -1.0940     0.4120     1.1320 n          1 2TW      -0.416800
     18 C15         -2.0850    -0.7030     1.1980 c3         1 2TW       0.178700
     19 C16         -2.4070    -1.1360     2.6310 cx         1 2TW      -0.116700
     20 C22         -1.5300    -2.1150     3.3780 cx         1 2TW      -0.134900
     21 C27         -2.9090    -2.5320     2.9250 cx         1 2TW      -0.134900
     22 C17         -3.3780    -0.4560     0.3870 c3         1 2TW      -0.298400
     23 S1          -3.1240    -0.2710    -1.3890 s6         1 2TW       1.029000
     24 O5          -2.5700     1.0680    -1.6250 o          1 2TW      -0.511000
     25 O6          -2.3690    -1.4430    -1.8520 o          1 2TW      -0.511000
     26 C18         -4.8080    -0.3330    -2.1630 c3         1 2TW      -0.222000
     27 C20         -5.7140     0.7800    -1.5620 c3         1 2TW      -0.081767
     28 C21         -4.6550    -0.0970    -3.6930 c3         1 2TW      -0.081767
     29 C19         -5.4690    -1.7240    -1.9300 c3         1 2TW      -0.081767
     30 C7           0.1050     0.2260     0.2400 c6         1 2TW       0.127000
     31 C5           0.8530    -1.0890     0.5060 ca         1 2TW      -0.095300
     32 C4           0.9340    -2.0690    -0.5050 ca         1 2TW      -0.082000
     33 C3           1.6250    -3.2710    -0.2730 ca         1 2TW      -0.113500
     34 C2           2.2390    -3.4990     0.9670 ca         1 2TW       0.119000
     35 Cl1          3.1020    -5.0040     1.2560 cl         1 2TW      -0.224000
     36 C1           2.1650    -2.5290     1.9790 ca         1 2TW      -0.113500
     37 C6           1.4740    -1.3270     1.7500 ca         1 2TW      -0.082000
     38 H1           3.6990     0.6580    -0.3730 ha         1 2TW       0.135000
     39 H2           3.6940     1.5820    -4.5840 ha         1 2TW       0.115000
     40 H3           1.3330     2.3710    -4.4150 ha         1 2TW       0.109000
     41 H4           0.1510     2.3070    -2.2270 ha         1 2TW       0.140000
     42 H5           1.8750     1.2690     0.9820 h1         1 2TW       0.070700
     43 H6          -0.7850     3.7140     1.7360 h1         1 2TW       0.134700
     44 H7           0.0430     2.8440     3.7990 hc         1 2TW       0.032700
     45 H8           1.1570     1.6730     2.9670 hc         1 2TW       0.032700
     46 H10         -1.6190    -1.5810     0.7320 h1         1 2TW       0.062700
     47 H11         -2.8650    -0.3450     3.2190 hc         1 2TW       0.108700
     48 H12         -0.6870    -2.5620     2.8600 hc         1 2TW       0.068450
     49 H13         -1.3720    -1.9440     4.4410 hc         1 2TW       0.068450
     50 H14         -3.6810    -2.6430     3.6840 hc         1 2TW       0.068450
     51 H15         -2.9780    -3.2370     2.1000 hc         1 2TW       0.068450
     52 H16         -4.0450    -1.3130     0.5100 h1         1 2TW       0.107200
     53 H17         -3.8910     0.4470     0.7300 h1         1 2TW       0.107200
     54 H18         -5.2650     1.7730    -1.6920 hc         1 2TW       0.050922
     55 H19         -6.6940     0.7910    -2.0550 hc         1 2TW       0.050922
     56 H20         -5.8890     0.6230    -0.4910 hc         1 2TW       0.050922
     57 H21         -4.0190    -0.8650    -4.1510 hc         1 2TW       0.050922
     58 H22         -5.6300    -0.1280    -4.1940 hc         1 2TW       0.050922
     59 H23         -4.2050     0.8820    -3.9010 hc         1 2TW       0.050922
     60 H24         -5.6570    -1.9130    -0.8670 hc         1 2TW       0.050922
     61 H25         -6.4350    -1.7850    -2.4470 hc         1 2TW       0.050922
     62 H26         -4.8370    -2.5350    -2.3140 hc         1 2TW       0.050922
     63 H27         -0.2930     0.1550    -0.7800 h1         1 2TW       0.068700
     64 H28          0.4630    -1.9020    -1.4710 ha         1 2TW       0.133500
     65 H29          1.6840    -4.0240    -1.0550 ha         1 2TW       0.125500
     66 H30          2.6390    -2.7100     2.9400 ha         1 2TW       0.125500
     67 H31          1.4130    -0.5890     2.5450 ha         1 2TW       0.133500
@<TRIPOS>BOND
     1     1     2 ar  
     2     1     7 ar  
     3     1    38 1   
     4     2     3 1   
     5     2     4 ar  
     6     4     5 ar  
     7     4    39 1   
     8     5     6 ar  
     9     5    40 1   
    10     6     7 ar  
    11     6    41 1   
    12     7     8 1   
    13     8     9 1   
    14     8    30 1   
    15     8    42 1   
    16     9    10 1   
    17    10    11 1   
    18    10    15 1   
    19    10    43 1   
    20    11    12 1   
    21    11    44 1   
    22    11    45 1   
    23    12    13 1   
    24    12    14 1   
    25    15    16 2   
    26    15    17 1   
    27    17    18 1   
    28    17    30 1   
    29    18    19 1   
    30    18    22 1   
    31    18    46 1   
    32    19    20 1   
    33    19    21 1   
    34    19    47 1   
    35    20    21 1   
    36    20    48 1   
    37    20    49 1   
    38    21    50 1   
    39    21    51 1   
    40    22    23 1   
    41    22    52 1   
    42    22    53 1   
    43    23    24 2   
    44    23    25 2   
    45    23    26 1   
    46    26    27 1   
    47    26    28 1   
    48    26    29 1   
    49    27    54 1   
    50    27    55 1   
    51    27    56 1   
    52    28    57 1   
    53    28    58 1   
    54    28    59 1   
    55    29    60 1   
    56    29    61 1   
    57    29    62 1   
    58    30    31 1   
    59    30    63 1   
    60    31    32 ar  
    61    31    37 ar  
    62    32    33 ar  
    63    32    64 1   
    64    33    34 ar  
    65    33    65 1   
    66    34    35 1   
    67    34    36 ar  
    68    36    37 ar  
    69    36    66 1   
    70    37    67 1   
@<TRIPOS>SUBSTRUCTURE
     1 2TW         1 TEMP              0 ****  ****    0 ROOT
