@<TRIPOS>MOLECULE
2TW
   67    70     1     0     0
SMALL
abcg2


@<TRIPOS>ATOM
      1 C14          3.1870     0.8660    -1.0900 ca         1 2TW      -0.078000
      2 C13          3.9300     0.7990    -2.2590 ca         1 2TW       0.113000
      3 CL2          5.6120     0.3870    -2.1660 cl         1 2TW      -0.226000
      4 C12          3.3590     1.0580    -3.4940 ca         1 2TW      -0.109000
      5 C11          2.0100     1.3850    -3.5490 ca         1 2TW      -0.116000
      6 C10          1.2510     1.4500    -2.3920 ca         1 2TW      -0.072000
      7 C9           1.8400     1.1930    -1.1560 ca         1 2TW      -0.058300
      8 C8           1.0120     1.2380     0.0990 c6         1 2TW       0.209600
      9 O1           0.2560     2.4130     0.0930 os         1 2TW      -0.397000
     10 C23         -0.4790     2.5860     1.2820 c6         1 2TW       0.117300
     11 C25          0.3910     2.9770     2.4700 c3         1 2TW      -0.239400
     12 C26          1.1420     4.3060     2.2480 c          1 2TW       0.727000
     13 O4           0.5260     5.1990     1.6370 o          1 2TW      -0.727000
     14 O3           2.2880     4.3840     2.7320 o          1 2TW      -0.727000
     15 C24         -1.3470     1.3850     1.6080 c          1 2TW       0.545000
     16 O2          -2.2970     1.5300     2.3650 o          1 2TW      -0.584000
     17 N1          -1.0400     0.1970     1.0450 n          1 2TW      -0.416800
     18 C15         -2.0140    -0.9000     1.0880 c3         1 2TW       0.178700
     19 C16         -2.2140    -1.5000     2.4600 cx         1 2TW      -0.116700
     20 C22         -1.3630    -2.6440     2.9150 cx         1 2TW      -0.134900
     21 C27         -2.7950    -2.8790     2.5510 cx         1 2TW      -0.134900
     22 C17         -3.3760    -0.5120     0.4970 c3         1 2TW      -0.298400
     23 S1          -3.2260     0.1110    -1.1840 s6         1 2TW       1.029000
     24 O5          -2.7470     1.4970    -1.1300 o          1 2TW      -0.511000
     25 O6          -2.4190    -0.8510    -1.9470 o          1 2TW      -0.511000
     26 C18         -4.9170     0.1190    -1.8850 c3         1 2TW      -0.222000
     27 C20         -5.8280     0.9240    -0.9660 c3         1 2TW      -0.081767
     28 C21         -4.7820     0.8010    -3.2470 c3         1 2TW      -0.081767
     29 C19         -5.4010    -1.3170    -2.0480 c3         1 2TW      -0.081767
     30 C7           0.1000     0.0000     0.1510 c6         1 2TW       0.127000
     31 C5           0.9290    -1.1930     0.5590 ca         1 2TW      -0.095300
     32 C4           1.1820    -2.2140    -0.3470 ca         1 2TW      -0.082000
     33 C3           1.9770    -3.2990    -0.0010 ca         1 2TW      -0.113500
     34 C2           2.5230    -3.3500     1.2700 ca         1 2TW       0.119000
     35 CL1          3.5190    -4.6950     1.7170 cl         1 2TW      -0.224000
     36 C1           2.2860    -2.3420     2.1940 ca         1 2TW      -0.113500
     37 C6           1.4880    -1.2710     1.8310 ca         1 2TW      -0.082000
     38 H1           3.6530     0.6630    -0.1340 ha         1 2TW       0.135000
     39 H2           3.9510     1.0030    -4.3970 ha         1 2TW       0.115000
     40 H3           1.5530     1.5890    -4.5080 ha         1 2TW       0.109000
     41 H4           0.1970     1.6940    -2.4520 ha         1 2TW       0.140000
     42 H5           1.6860     1.2190     0.9650 h1         1 2TW       0.070700
     43 H6          -1.1710     3.4060     1.0830 h1         1 2TW       0.134700
     44 H7          -0.2640     3.0970     3.3390 hc         1 2TW       0.032700
     45 H8           1.0930     2.1820     2.7360 hc         1 2TW       0.032700
     46 H10         -1.6050    -1.6880     0.4480 h1         1 2TW       0.062700
     47 H11         -2.5310    -0.8030     3.2240 hc         1 2TW       0.108700
     48 H12         -0.6080    -3.0240     2.2380 hc         1 2TW       0.068450
     49 H13         -1.0770    -2.6780     3.9580 hc         1 2TW       0.068450
     50 H14         -3.5140    -3.0780     3.3350 hc         1 2TW       0.068450
     51 H15         -2.9910    -3.4080     1.6250 hc         1 2TW       0.068450
     52 H16         -4.0040    -1.4030     0.4630 h1         1 2TW       0.107200
     53 H17         -3.8840     0.2430     1.0930 h1         1 2TW       0.107200
     54 H18         -5.4230     1.9120    -0.7520 hc         1 2TW       0.050922
     55 H19         -6.7870     1.0620    -1.4650 hc         1 2TW       0.050922
     56 H20         -6.0260     0.4140    -0.0240 hc         1 2TW       0.050922
     57 H21         -4.0850     0.2760    -3.9010 hc         1 2TW       0.050922
     58 H22         -5.7580     0.7940    -3.7320 hc         1 2TW       0.050922
     59 H23         -4.4640     1.8380    -3.1540 hc         1 2TW       0.050922
     60 H24         -5.4550    -1.8550    -1.1020 hc         1 2TW       0.050922
     61 H25         -6.4090    -1.2960    -2.4630 hc         1 2TW       0.050922
     62 H26         -4.7700    -1.8810    -2.7330 hc         1 2TW       0.050922
     63 H27         -0.2880    -0.1830    -0.8560 h1         1 2TW       0.068700
     64 H28          0.7550    -2.1710    -1.3410 ha         1 2TW       0.133500
     65 H29          2.1640    -4.0880    -0.7160 ha         1 2TW       0.125500
     66 H30          2.7130    -2.3930     3.1870 ha         1 2TW       0.125500
     67 H31          1.2950    -0.4970     2.5650 ha         1 2TW       0.133500
@<TRIPOS>BOND
     1     1     2 ar  
     2     1     7 ar  
     3     1    38 1   
     4     2     3 1   
     5     2     4 ar  
     6     4     5 ar  
     7     4    39 1   
     8     5     6 ar  
     9     5    40 1   
    10     6     7 ar  
    11     6    41 1   
    12     7     8 1   
    13     8     9 1   
    14     8    30 1   
    15     8    42 1   
    16     9    10 1   
    17    10    11 1   
    18    10    15 1   
    19    10    43 1   
    20    11    12 1   
    21    11    44 1   
    22    11    45 1   
    23    12    13 1   
    24    12    14 1   
    25    15    16 2   
    26    15    17 1   
    27    17    18 1   
    28    17    30 1   
    29    18    19 1   
    30    18    22 1   
    31    18    46 1   
    32    19    20 1   
    33    19    21 1   
    34    19    47 1   
    35    20    21 1   
    36    20    48 1   
    37    20    49 1   
    38    21    50 1   
    39    21    51 1   
    40    22    23 1   
    41    22    52 1   
    42    22    53 1   
    43    23    24 2   
    44    23    25 2   
    45    23    26 1   
    46    26    27 1   
    47    26    28 1   
    48    26    29 1   
    49    27    54 1   
    50    27    55 1   
    51    27    56 1   
    52    28    57 1   
    53    28    58 1   
    54    28    59 1   
    55    29    60 1   
    56    29    61 1   
    57    29    62 1   
    58    30    31 1   
    59    30    63 1   
    60    31    32 ar  
    61    31    37 ar  
    62    32    33 ar  
    63    32    64 1   
    64    33    34 ar  
    65    33    65 1   
    66    34    35 1   
    67    34    36 ar  
    68    36    37 ar  
    69    36    66 1   
    70    37    67 1   
@<TRIPOS>SUBSTRUCTURE
     1 2TW         1 TEMP              0 ****  ****    0 ROOT
