@<TRIPOS>MOLECULE
2TX
   81    81     1     0     0
SMALL
No Charge or Current Charge


@<TRIPOS>ATOM
      1 CBA         12.0970    -1.0940     1.9790 c3         1 2TX      -0.079600
      2 CAY         10.8950    -1.5400     1.1540 cx         1 2TX       0.105000
      3 CBB         10.1630    -2.7520     1.7300 c3         1 2TX      -0.079600
      4 OAZ         11.0340    -1.4860    -0.2840 op         1 2TX      -0.443000
      5 CAX         10.1630    -0.5090     0.3310 cx         1 2TX       0.092300
      6 CAW          8.6720    -0.6240     0.0230 c3         1 2TX      -0.064400
      7 CAV          8.1920     0.4200    -1.0100 c3         1 2TX      -0.038200
      8 CAT          6.6910     0.3610    -1.2660 c2         1 2TX      -0.111400
      9 CAU          6.2840    -0.8210    -2.1400 c3         1 2TX      -0.055900
     10 CAS          5.8500     1.2900    -0.7700 c2         1 2TX      -0.221200
     11 CAR          4.3370     1.3550    -0.9140 c3         1 2TX      -0.037200
     12 CAQ          3.6460     1.8690     0.3690 c3         1 2TX      -0.037200
     13 CAO          2.1260     1.8560     0.2770 c2         1 2TX      -0.112400
     14 CAP          1.5680     3.0260    -0.5260 c3         1 2TX      -0.054900
     15 CAN          1.3860     0.9000     0.8710 c2         1 2TX      -0.221200
     16 CAM         -0.1270     0.7770     0.8940 c3         1 2TX      -0.036200
     17 CAL         -0.6660    -0.0200    -0.3110 c3         1 2TX      -0.037200
     18 CAK         -2.1780    -0.1520    -0.2830 c2         1 2TX      -0.220200
     19 CAJ         -3.0890     0.6910    -0.8050 c2         1 2TX      -0.112400
     20 CBC         -2.7670     1.9900    -1.5340 c3         1 2TX      -0.054900
     21 CAI         -4.5830     0.4070    -0.7280 c3         1 2TX      -0.038200
     22 CAH         -5.3010     1.2270     0.3650 c3         1 2TX      -0.036200
     23 CAG         -6.7690     0.8580     0.4880 c2         1 2TX      -0.222200
     24 CAF         -7.3090    -0.1280     1.2310 c2         1 2TX      -0.111400
     25 CBD         -6.5210    -1.1000     2.1010 c3         1 2TX      -0.054900
     26 CAE         -8.8120    -0.3600     1.2860 c3         1 2TX      -0.038200
     27 CAD         -9.2750    -1.5460     0.4130 c3         1 2TX      -0.035200
     28 CAC        -10.7860    -1.7000     0.4080 c2         1 2TX      -0.224200
     29 CAB        -11.6680    -1.1060    -0.4180 c2         1 2TX      -0.112400
     30 CBE        -11.3150    -0.1140    -1.5170 c3         1 2TX      -0.055900
     31 CAA        -13.1610    -1.3670    -0.3360 c3         1 2TX      -0.055900
     32 H1          12.7420    -1.9430     2.2340 hc         1 2TX       0.046033
     33 H2          12.7080    -0.3650     1.4330 hc         1 2TX       0.046033
     34 H3          11.7720    -0.6250     2.9150 hc         1 2TX       0.046033
     35 H4           9.4980    -2.4490     2.5480 hc         1 2TX       0.046033
     36 H5           9.5560    -3.2580     0.9700 hc         1 2TX       0.046033
     37 H6          10.8680    -3.4900     2.1290 hc         1 2TX       0.046033
     38 H7          10.5460     0.5120     0.3540 h1         1 2TX       0.076700
     39 H8           8.4410    -1.6290    -0.3500 hc         1 2TX       0.051700
     40 H9           8.1010    -0.4910     0.9500 hc         1 2TX       0.051700
     41 H10          8.4660     1.4160    -0.6410 hc         1 2TX       0.051700
     42 H11          8.7460     0.2870    -1.9480 hc         1 2TX       0.051700
     43 H13          6.8950    -0.8660    -3.0490 hc         1 2TX       0.039367
     44 H14          6.4100    -1.7710    -1.6080 hc         1 2TX       0.039367
     45 H15          5.2420    -0.7690    -2.4700 hc         1 2TX       0.039367
     46 H16          6.2580     2.1040    -0.1680 ha         1 2TX       0.165000
     47 H18          4.0830     2.0180    -1.7490 hc         1 2TX       0.046200
     48 H19          3.9150     0.3730    -1.1530 hc         1 2TX       0.046200
     49 H20          3.9720     1.2340     1.2030 hc         1 2TX       0.044700
     50 H21          4.0060     2.8790     0.6040 hc         1 2TX       0.044700
     51 H22          1.8550     3.9830    -0.0760 hc         1 2TX       0.039033
     52 H23          1.9450     3.0180    -1.5560 hc         1 2TX       0.039033
     53 H24          0.4760     3.0150    -0.5920 hc         1 2TX       0.039033
     54 H25          1.8860     0.1040     1.4250 ha         1 2TX       0.164000
     55 H26         -0.4420     0.2800     1.8200 hc         1 2TX       0.046200
     56 H27         -0.6020     1.7650     0.9130 hc         1 2TX       0.046200
     57 H28         -0.3300     0.4590    -1.2380 hc         1 2TX       0.044700
     58 H29         -0.2100    -1.0180    -0.3120 hc         1 2TX       0.044700
     59 H30         -2.5160    -1.0590     0.2210 ha         1 2TX       0.164000
     60 H33         -3.1410     1.9650    -2.5640 hc         1 2TX       0.039033
     61 H34         -3.2260     2.8510    -1.0350 hc         1 2TX       0.039033
     62 H35         -1.6930     2.1950    -1.5870 hc         1 2TX       0.039033
     63 H36         -5.0610     0.5920    -1.6980 hc         1 2TX       0.045200
     64 H37         -4.7470    -0.6560    -0.5140 hc         1 2TX       0.045200
     65 H38         -4.7820     1.0830     1.3200 hc         1 2TX       0.045200
     66 H39         -5.2130     2.2970     0.1390 hc         1 2TX       0.045200
     67 H40         -7.4220     1.5030    -0.1030 ha         1 2TX       0.165000
     68 H41         -6.8120    -1.0070     3.1540 hc         1 2TX       0.039367
     69 H42         -6.7000    -2.1380     1.7990 hc         1 2TX       0.039367
     70 H43         -5.4400    -0.9400     2.0490 hc         1 2TX       0.039367
     71 H44         -9.1400    -0.5170     2.3210 hc         1 2TX       0.045200
     72 H45         -9.3380     0.5380     0.9410 hc         1 2TX       0.045200
     73 H46         -8.8950    -1.4100    -0.6060 hc         1 2TX       0.045200
     74 H47         -8.8170    -2.4730     0.7790 hc         1 2TX       0.045200
     75 H48        -11.1470    -2.3950     1.1690 ha         1 2TX       0.164000
     76 H51        -11.5890    -0.5070    -2.5030 hc         1 2TX       0.038533
     77 H52        -11.8530     0.8320    -1.3770 hc         1 2TX       0.038533
     78 H53        -10.2480     0.1300    -1.5470 hc         1 2TX       0.038533
     79 H54        -13.7130    -0.4430    -0.1250 hc         1 2TX       0.038533
     80 H55        -13.5420    -1.7770    -1.2800 hc         1 2TX       0.038533
     81 H56        -13.4060    -2.0840     0.4560 hc         1 2TX       0.038533
@<TRIPOS>BOND
     1     1     2 1   
     2     1    32 1   
     3     1    33 1   
     4     1    34 1   
     5     2     3 1   
     6     2     4 1   
     7     2     5 1   
     8     3    35 1   
     9     3    36 1   
    10     3    37 1   
    11     4     5 1   
    12     5     6 1   
    13     5    38 1   
    14     6     7 1   
    15     6    39 1   
    16     6    40 1   
    17     7     8 1   
    18     7    41 1   
    19     7    42 1   
    20     8     9 1   
    21     8    10 2   
    22     9    43 1   
    23     9    44 1   
    24     9    45 1   
    25    10    11 1   
    26    10    46 1   
    27    11    12 1   
    28    11    47 1   
    29    11    48 1   
    30    12    13 1   
    31    12    49 1   
    32    12    50 1   
    33    13    14 1   
    34    13    15 2   
    35    14    51 1   
    36    14    52 1   
    37    14    53 1   
    38    15    16 1   
    39    15    54 1   
    40    16    17 1   
    41    16    55 1   
    42    16    56 1   
    43    17    18 1   
    44    17    57 1   
    45    17    58 1   
    46    18    19 2   
    47    18    59 1   
    48    19    20 1   
    49    19    21 1   
    50    20    60 1   
    51    20    61 1   
    52    20    62 1   
    53    21    22 1   
    54    21    63 1   
    55    21    64 1   
    56    22    23 1   
    57    22    65 1   
    58    22    66 1   
    59    23    24 2   
    60    23    67 1   
    61    24    25 1   
    62    24    26 1   
    63    25    68 1   
    64    25    69 1   
    65    25    70 1   
    66    26    27 1   
    67    26    71 1   
    68    26    72 1   
    69    27    28 1   
    70    27    73 1   
    71    27    74 1   
    72    28    29 2   
    73    28    75 1   
    74    29    30 1   
    75    29    31 1   
    76    30    76 1   
    77    30    77 1   
    78    30    78 1   
    79    31    79 1   
    80    31    80 1   
    81    31    81 1   
@<TRIPOS>SUBSTRUCTURE
     1 2TX         1 TEMP              0 ****  ****    0 ROOT
