@<TRIPOS>MOLECULE
2TX
   81    81     1     0     0
SMALL
bcc


@<TRIPOS>ATOM
      1 CBA         12.0780    -1.7530     1.0390 c3         1 2TX      -0.079600
      2 CAY         10.7730    -1.7450     0.2840 cx         1 2TX       0.081800
      3 CBB         10.2060    -3.1170     0.0250 c3         1 2TX      -0.079600
      4 OAZ         10.7170    -0.8290    -0.8090 op         1 2TX      -0.396600
      5 CAX          9.9280    -0.5490     0.3440 cx         1 2TX       0.069100
      6 CAW          8.4350    -0.5280     0.1860 c3         1 2TX      -0.064400
      7 CAV          7.9650     0.6710    -0.6430 c3         1 2TX      -0.038200
      8 CAT          6.4680     0.7360    -0.7880 c2         1 2TX      -0.111400
      9 CAU          5.8440    -0.4360    -1.4910 c3         1 2TX      -0.055900
     10 CAS          5.7820     1.7760    -0.3040 c2         1 2TX      -0.171200
     11 CAR          4.3020     1.9900    -0.3360 c3         1 2TX      -0.037200
     12 CAQ          3.6730     1.8650     1.0630 c3         1 2TX      -0.037200
     13 CAO          2.1740     2.0090     1.0370 c2         1 2TX      -0.112400
     14 CAP          1.6660     3.3480     0.5870 c3         1 2TX      -0.054900
     15 CAN          1.3940     0.9780     1.3710 c2         1 2TX      -0.171200
     16 CAM         -0.0990     0.8930     1.3170 c3         1 2TX      -0.036200
     17 CAL         -0.5550    -0.1130     0.2470 c3         1 2TX      -0.037200
     18 CAK         -2.0420    -0.2730     0.2120 c2         1 2TX      -0.170200
     19 CAJ         -2.8860     0.1020    -0.7520 c2         1 2TX      -0.112400
     20 CBC         -2.4760     0.7530    -2.0400 c3         1 2TX      -0.054900
     21 CAI         -4.3700    -0.1070    -0.5910 c3         1 2TX      -0.038200
     22 CAH         -5.0980     1.1660    -0.1250 c3         1 2TX      -0.036200
     23 CAG         -6.5860     1.0040    -0.1800 c2         1 2TX      -0.172200
     24 CAF         -7.4210     0.7350     0.8280 c2         1 2TX      -0.111400
     25 CBD         -6.9970     0.5770     2.2580 c3         1 2TX      -0.054900
     26 CAE         -8.8910     0.5440     0.5650 c3         1 2TX      -0.038200
     27 CAD         -9.3290    -0.9280     0.6390 c3         1 2TX      -0.035200
     28 CAC        -10.8130    -1.0710     0.5000 c2         1 2TX      -0.174200
     29 CAB        -11.5000    -1.5460    -0.5420 c2         1 2TX      -0.112400
     30 CBE        -10.8830    -2.0640    -1.8080 c3         1 2TX      -0.055900
     31 CAA        -13.0000    -1.5990    -0.5200 c3         1 2TX      -0.055900
     32 H1          12.8410    -2.3090     0.4910 hc         1 2TX       0.046033
     33 H2          12.4520    -0.7440     1.2150 hc         1 2TX       0.046033
     34 H3          11.9510    -2.2380     2.0080 hc         1 2TX       0.046033
     35 H4           9.9470    -3.6020     0.9670 hc         1 2TX       0.046033
     36 H5           9.3140    -3.0960    -0.5990 hc         1 2TX       0.046033
     37 H6          10.9480    -3.7430    -0.4740 hc         1 2TX       0.046033
     38 H7          10.3110     0.2840     0.9390 h1         1 2TX       0.076700
     39 H8           8.0770    -1.4550    -0.2640 hc         1 2TX       0.051700
     40 H9           7.9940    -0.4730     1.1860 hc         1 2TX       0.051700
     41 H10          8.3370     1.5950    -0.1910 hc         1 2TX       0.051700
     42 H11          8.4180     0.6020    -1.6380 hc         1 2TX       0.051700
     43 H13          6.4420    -0.7310    -2.3560 hc         1 2TX       0.039367
     44 H14          5.7920    -1.3090    -0.8370 hc         1 2TX       0.039367
     45 H15          4.8340    -0.2390    -1.8440 hc         1 2TX       0.039367
     46 H16          6.3460     2.5570     0.2000 ha         1 2TX       0.115000
     47 H18          4.0950     2.9890    -0.7310 hc         1 2TX       0.046200
     48 H19          3.8070     1.2850    -1.0060 hc         1 2TX       0.046200
     49 H20          3.9470     0.8960     1.4870 hc         1 2TX       0.044700
     50 H21          4.1100     2.6300     1.7140 hc         1 2TX       0.044700
     51 H22          2.1920     4.1520     1.1070 hc         1 2TX       0.039033
     52 H23          1.8460     3.5020    -0.4800 hc         1 2TX       0.039033
     53 H24          0.6000     3.4820     0.7580 hc         1 2TX       0.039033
     54 H25          1.8870     0.0570     1.6780 ha         1 2TX       0.114000
     55 H26         -0.4890     0.5730     2.2890 hc         1 2TX       0.046200
     56 H27         -0.5530     1.8630     1.1060 hc         1 2TX       0.046200
     57 H28         -0.1600     0.2000    -0.7210 hc         1 2TX       0.044700
     58 H29         -0.0950    -1.0830     0.4650 hc         1 2TX       0.044700
     59 H30         -2.4730    -0.7360     1.0990 ha         1 2TX       0.114000
     60 H33         -2.6370     0.0700    -2.8790 hc         1 2TX       0.039033
     61 H34         -3.0840     1.6370    -2.2450 hc         1 2TX       0.039033
     62 H35         -1.4340     1.0630    -2.0610 hc         1 2TX       0.039033
     63 H36         -4.8010    -0.4330    -1.5430 hc         1 2TX       0.045200
     64 H37         -4.5670    -0.9020     0.1330 hc         1 2TX       0.045200
     65 H38         -4.7520     1.4190     0.8790 hc         1 2TX       0.045200
     66 H39         -4.8110     2.0040    -0.7680 hc         1 2TX       0.045200
     67 H40         -7.0150     1.0810    -1.1770 ha         1 2TX       0.115000
     68 H41         -7.5270     1.2880     2.8980 hc         1 2TX       0.039367
     69 H42         -7.2420    -0.4190     2.6350 hc         1 2TX       0.039367
     70 H43         -5.9300     0.7270     2.4080 hc         1 2TX       0.039367
     71 H44         -9.4740     1.1220     1.2910 hc         1 2TX       0.045200
     72 H45         -9.1500     0.9330    -0.4230 hc         1 2TX       0.045200
     73 H46         -8.7940    -1.4930    -0.1260 hc         1 2TX       0.045200
     74 H47         -9.0240    -1.3490     1.6020 hc         1 2TX       0.045200
     75 H48        -11.3850    -0.7110     1.3530 ha         1 2TX       0.114000
     76 H51        -11.1190    -3.1230    -1.9460 hc         1 2TX       0.038533
     77 H52        -11.2970    -1.5420    -2.6730 hc         1 2TX       0.038533
     78 H53         -9.8010    -1.9560    -1.8410 hc         1 2TX       0.038533
     79 H54        -13.4230    -1.0110    -1.3390 hc         1 2TX       0.038533
     80 H55        -13.3590    -2.6220    -0.6590 hc         1 2TX       0.038533
     81 H56        -13.4120    -1.2200     0.4150 hc         1 2TX       0.038533
@<TRIPOS>BOND
     1     1     2 1   
     2     1    32 1   
     3     1    33 1   
     4     1    34 1   
     5     2     3 1   
     6     2     4 1   
     7     2     5 1   
     8     3    35 1   
     9     3    36 1   
    10     3    37 1   
    11     4     5 1   
    12     5     6 1   
    13     5    38 1   
    14     6     7 1   
    15     6    39 1   
    16     6    40 1   
    17     7     8 1   
    18     7    41 1   
    19     7    42 1   
    20     8     9 1   
    21     8    10 2   
    22     9    43 1   
    23     9    44 1   
    24     9    45 1   
    25    10    11 1   
    26    10    46 1   
    27    11    12 1   
    28    11    47 1   
    29    11    48 1   
    30    12    13 1   
    31    12    49 1   
    32    12    50 1   
    33    13    14 1   
    34    13    15 2   
    35    14    51 1   
    36    14    52 1   
    37    14    53 1   
    38    15    16 1   
    39    15    54 1   
    40    16    17 1   
    41    16    55 1   
    42    16    56 1   
    43    17    18 1   
    44    17    57 1   
    45    17    58 1   
    46    18    19 2   
    47    18    59 1   
    48    19    20 1   
    49    19    21 1   
    50    20    60 1   
    51    20    61 1   
    52    20    62 1   
    53    21    22 1   
    54    21    63 1   
    55    21    64 1   
    56    22    23 1   
    57    22    65 1   
    58    22    66 1   
    59    23    24 2   
    60    23    67 1   
    61    24    25 1   
    62    24    26 1   
    63    25    68 1   
    64    25    69 1   
    65    25    70 1   
    66    26    27 1   
    67    26    71 1   
    68    26    72 1   
    69    27    28 1   
    70    27    73 1   
    71    27    74 1   
    72    28    29 2   
    73    28    75 1   
    74    29    30 1   
    75    29    31 1   
    76    30    76 1   
    77    30    77 1   
    78    30    78 1   
    79    31    79 1   
    80    31    80 1   
    81    31    81 1   
@<TRIPOS>SUBSTRUCTURE
     1 2TX         1 TEMP              0 ****  ****    0 ROOT
