@<TRIPOS>MOLECULE
2TZ
   66    68     1     0     0
SMALL
No Charge or Current Charge


@<TRIPOS>ATOM
      1 C17         -3.9300    -0.2910     0.8610 ca         1 2TZ      -0.074000
      2 C16         -5.0770    -1.1010     0.8580 ca         1 2TZ       0.111000
      3 Cl2         -6.1110    -1.1620     2.2790 cl         1 2TZ      -0.229000
      4 C15         -5.3980    -1.8670    -0.2740 ca         1 2TZ      -0.110000
      5 C14         -4.5690    -1.8220    -1.4080 ca         1 2TZ      -0.110000
      6 C13         -3.4210    -1.0110    -1.4080 ca         1 2TZ      -0.083000
      7 C6          -3.0950    -0.2380    -0.2750 ca         1 2TZ      -0.055300
      8 C19         -1.8280     0.6240    -0.2710 c6         1 2TZ       0.205600
      9 O6          -2.1570     1.9330     0.2440 os         1 2TZ      -0.413000
     10 C4          -1.0320     2.8430     0.3010 c6         1 2TZ       0.115300
     11 C21         -0.4900     3.1990    -1.1220 c3         1 2TZ      -0.238400
     12 C23         -1.5930     3.7790    -2.0070 c          1 2TZ       0.725000
     13 O3          -2.1690     3.0300    -2.7800 o          1 2TZ      -0.729500
     14 O2          -1.8580     4.9640    -1.8830 o          1 2TZ      -0.729500
     15 C5           0.0740     2.2730     1.2230 c          1 2TZ       0.536000
     16 O1           0.6270     3.0040     2.0370 o          1 2TZ      -0.557000
     17 N1           0.3390     0.8750     1.1610 n          1 2TZ      -0.411800
     18 C18          1.4030     0.3070     2.0600 c3         1 2TZ       0.132700
     19 C20          2.6020    -0.3090     1.3030 c3         1 2TZ      -0.300400
     20 C26         -0.6760    -0.0620     0.5400 c6         1 2TZ       0.135000
     21 C7          -0.0600    -1.1840    -0.3110 ca         1 2TZ      -0.087300
     22 C8          -0.2150    -2.5310     0.0760 ca         1 2TZ      -0.093000
     23 C9           0.3340    -3.5630    -0.7040 ca         1 2TZ      -0.115500
     24 C10          1.0310    -3.2570    -1.8830 ca         1 2TZ       0.114000
     25 Cl1          1.7200    -4.5480    -2.8580 cl         1 2TZ      -0.223000
     26 C11          1.1760    -1.9220    -2.2870 ca         1 2TZ      -0.115500
     27 C12          0.6340    -0.8880    -1.5040 ca         1 2TZ      -0.093000
     28 S1           3.6020     0.9200     0.4270 s6         1 2TZ       1.051000
     29 O4           2.7860     1.4920    -0.6510 o          1 2TZ      -0.496500
     30 O5           4.1730     1.8190     1.4390 o          1 2TZ      -0.496500
     31 C3           4.9990    -0.0180    -0.3540 c3         1 2TZ      -0.234000
     32 C1           0.8590    -0.6670     3.1400 c3         1 2TZ      -0.082400
     33 C2          -0.2010    -0.0430     4.0750 c3         1 2TZ      -0.092100
     34 C22          5.8410    -0.7470     0.7340 c3         1 2TZ      -0.080433
     35 C24          4.4500    -1.0620    -1.3690 c3         1 2TZ      -0.080433
     36 C25          5.9100     0.9930    -1.1090 c3         1 2TZ      -0.080433
     37 H1          -3.6910     0.2940     1.7450 ha         1 2TZ       0.142000
     38 H2          -6.2860    -2.4940    -0.2720 ha         1 2TZ       0.117000
     39 H3          -4.8140    -2.4170    -2.2850 ha         1 2TZ       0.111000
     40 H4          -2.7810    -0.9890    -2.2880 ha         1 2TZ       0.126000
     41 H5          -1.5110     0.7410    -1.3150 h1         1 2TZ       0.081700
     42 H6          -1.3740     3.7710     0.7810 h1         1 2TZ       0.124700
     43 H7           0.2620     3.9770    -0.9420 hc         1 2TZ       0.043200
     44 H8          -0.0550     2.3050    -1.5760 hc         1 2TZ       0.043200
     45 H10          1.8370     1.1260     2.6490 h1         1 2TZ       0.097700
     46 H11          3.2810    -0.7750     2.0220 h1         1 2TZ       0.091200
     47 H12          2.2870    -1.0650     0.5820 h1         1 2TZ       0.091200
     48 H13         -1.1820    -0.5510     1.3820 h1         1 2TZ       0.052700
     49 H14         -0.7640    -2.7840     0.9810 ha         1 2TZ       0.140000
     50 H15          0.2170    -4.6000    -0.3980 ha         1 2TZ       0.126000
     51 H16          1.7110    -1.6880    -3.2030 ha         1 2TZ       0.126000
     52 H17          0.7630     0.1430    -1.8240 ha         1 2TZ       0.140000
     53 H18          0.4500    -1.5680     2.6710 hc         1 2TZ       0.037700
     54 H19          1.6970    -1.0050     3.7620 hc         1 2TZ       0.037700
     55 H20          0.2090     0.8340     4.5910 hc         1 2TZ       0.038367
     56 H21         -1.0920     0.2720     3.5200 hc         1 2TZ       0.038367
     57 H22         -0.5140    -0.7700     4.8340 hc         1 2TZ       0.038367
     58 H23          6.7100    -1.2430     0.2830 hc         1 2TZ       0.049033
     59 H24          6.2160    -0.0430     1.4880 hc         1 2TZ       0.049033
     60 H25          5.2570    -1.5190     1.2470 hc         1 2TZ       0.049033
     61 H26          3.8410    -0.5800    -2.1430 hc         1 2TZ       0.049033
     62 H27          5.2730    -1.5840    -1.8720 hc         1 2TZ       0.049033
     63 H28          3.8350    -1.8230    -0.8740 hc         1 2TZ       0.049033
     64 H29          5.3510     1.5230    -1.8900 hc         1 2TZ       0.049033
     65 H30          6.3260     1.7420    -0.4230 hc         1 2TZ       0.049033
     66 H31          6.7510     0.4790    -1.5910 hc         1 2TZ       0.049033
@<TRIPOS>BOND
     1     1     2 ar  
     2     1     7 ar  
     3     1    37 1   
     4     2     3 1   
     5     2     4 ar  
     6     4     5 ar  
     7     4    38 1   
     8     5     6 ar  
     9     5    39 1   
    10     6     7 ar  
    11     6    40 1   
    12     7     8 1   
    13     8     9 1   
    14     8    20 1   
    15     8    41 1   
    16     9    10 1   
    17    10    11 1   
    18    10    15 1   
    19    10    42 1   
    20    11    12 1   
    21    11    43 1   
    22    11    44 1   
    23    12    13 1   
    24    12    14 1   
    25    15    16 2   
    26    15    17 1   
    27    17    18 1   
    28    17    20 1   
    29    18    19 1   
    30    18    32 1   
    31    18    45 1   
    32    19    28 1   
    33    19    46 1   
    34    19    47 1   
    35    20    21 1   
    36    20    48 1   
    37    21    22 ar  
    38    21    27 ar  
    39    22    23 ar  
    40    22    49 1   
    41    23    24 ar  
    42    23    50 1   
    43    24    25 1   
    44    24    26 ar  
    45    26    27 ar  
    46    26    51 1   
    47    27    52 1   
    48    28    29 2   
    49    28    30 2   
    50    28    31 1   
    51    31    34 1   
    52    31    35 1   
    53    31    36 1   
    54    32    33 1   
    55    32    53 1   
    56    32    54 1   
    57    33    55 1   
    58    33    56 1   
    59    33    57 1   
    60    34    58 1   
    61    34    59 1   
    62    34    60 1   
    63    35    61 1   
    64    35    62 1   
    65    35    63 1   
    66    36    64 1   
    67    36    65 1   
    68    36    66 1   
@<TRIPOS>SUBSTRUCTURE
     1 2TZ         1 TEMP              0 ****  ****    0 ROOT
