@<TRIPOS>MOLECULE
2TZ
   66    68     1     0     0
SMALL
bcc


@<TRIPOS>ATOM
      1 C17         -3.8480    -0.2940     0.6910 ca         1 2TZ      -0.092000
      2 C16         -4.9510    -1.1210     0.5700 ca         1 2TZ       0.019400
      3 CL2         -6.1020    -1.1860     1.8670 cl         1 2TZ      -0.137400
      4 C15         -5.1600    -1.8970    -0.5600 ca         1 2TZ      -0.128000
      5 C14         -4.2340    -1.8320    -1.5900 ca         1 2TZ      -0.128000
      6 C13         -3.1240    -1.0060    -1.4880 ca         1 2TZ      -0.101000
      7 C6          -2.9240    -0.2370    -0.3490 ca         1 2TZ      -0.055300
      8 C19         -1.6970     0.6250    -0.2170 c6         1 2TZ       0.182400
      9 O6          -2.0570     1.8490     0.3510 os         1 2TZ      -0.366600
     10 C4          -0.9820     2.7620     0.3690 c6         1 2TZ       0.092100
     11 C21         -0.6460     3.3170    -1.0110 c3         1 2TZ      -0.238400
     12 C23         -1.8640     3.9820    -1.6830 c          1 2TZ       0.935600
     13 O3          -2.0140     3.7750    -2.9020 o          1 2TZ      -0.834800
     14 O2          -2.5780     4.6950    -0.9510 o          1 2TZ      -0.834800
     15 C5           0.2540     2.1910     1.0340 c          1 2TZ       0.678500
     16 O1           1.0920     2.9640     1.4680 o          1 2TZ      -0.632500
     17 N1           0.3800     0.8410     1.1320 n          1 2TZ      -0.478800
     18 C18          1.4420     0.3340     2.0070 c3         1 2TZ       0.132700
     19 C20          2.6310    -0.2920     1.2700 c3         1 2TZ      -0.189600
     20 C26         -0.6520    -0.0860     0.6660 c6         1 2TZ       0.135000
     21 C7          -0.1200    -1.2580    -0.1230 ca         1 2TZ      -0.087300
     22 C8          -0.4570    -2.5540     0.2460 ca         1 2TZ      -0.111000
     23 C9          -0.0550    -3.6440    -0.5140 ca         1 2TZ      -0.133500
     24 C10          0.6880    -3.4240    -1.6610 ca         1 2TZ       0.022400
     25 CL1          1.2000    -4.7730    -2.6200 cl         1 2TZ      -0.131400
     26 C11          1.0310    -2.1390    -2.0560 ca         1 2TZ      -0.133500
     27 C12          0.6230    -1.0640    -1.2850 ca         1 2TZ      -0.111000
     28 S1           3.5950     0.9140     0.3420 s6         1 2TZ       0.971000
     29 O4           2.7860     1.4520    -0.7570 o          1 2TZ      -0.567300
     30 O5           4.1530     1.8650     1.3080 o          1 2TZ      -0.567300
     31 C3           4.9850    -0.0240    -0.4000 c3         1 2TZ      -0.123200
     32 C1           0.9160    -0.6410     3.0650 c3         1 2TZ      -0.082400
     33 C2          -0.0910     0.0010     4.0090 c3         1 2TZ      -0.092100
     34 C22          5.8320    -0.6400     0.7060 c3         1 2TZ      -0.080433
     35 C24          4.4260    -1.0870    -1.3380 c3         1 2TZ      -0.080433
     36 C25          5.7930     1.0110    -1.1840 c3         1 2TZ      -0.080433
     37 H1          -3.7110     0.2990     1.5860 ha         1 2TZ       0.160000
     38 H2          -6.0290    -2.5360    -0.6360 ha         1 2TZ       0.135000
     39 H3          -4.3850    -2.4290    -2.4790 ha         1 2TZ       0.129000
     40 H4          -2.4090    -0.9660    -2.2990 ha         1 2TZ       0.144000
     41 H5          -1.2750     0.7720    -1.2210 h1         1 2TZ       0.081700
     42 H6          -1.3150     3.5890     0.9980 h1         1 2TZ       0.124700
     43 H7           0.1330     4.0750    -0.8800 hc         1 2TZ       0.043200
     44 H8          -0.2110     2.5510    -1.6570 hc         1 2TZ       0.043200
     45 H10          1.8220     1.2000     2.5470 h1         1 2TZ       0.097700
     46 H11          3.3130    -0.7060     2.0120 h1         1 2TZ       0.091200
     47 H12          2.3380    -1.0960     0.5990 h1         1 2TZ       0.091200
     48 H13         -1.1830    -0.4780     1.5410 h1         1 2TZ       0.052700
     49 H14         -1.0500    -2.7260     1.1350 ha         1 2TZ       0.158000
     50 H15         -0.3220    -4.6470    -0.2120 ha         1 2TZ       0.144000
     51 H16          1.6170    -1.9750    -2.9510 ha         1 2TZ       0.144000
     52 H17          0.9160    -0.0660    -1.5850 ha         1 2TZ       0.158000
     53 H18          0.5030    -1.5420     2.6050 hc         1 2TZ       0.037700
     54 H19          1.7780    -0.9780     3.6460 hc         1 2TZ       0.037700
     55 H20          0.3500     0.8550     4.5260 hc         1 2TZ       0.038367
     56 H21         -0.9840     0.3560     3.4930 hc         1 2TZ       0.038367
     57 H22         -0.4140    -0.7130     4.7660 hc         1 2TZ       0.038367
     58 H23          6.6750    -1.1580     0.2450 hc         1 2TZ       0.049033
     59 H24          6.2360     0.1130     1.3800 hc         1 2TZ       0.049033
     60 H25          5.2870    -1.3790     1.2940 hc         1 2TZ       0.049033
     61 H26          3.7970    -0.6530    -2.1140 hc         1 2TZ       0.049033
     62 H27          5.2610    -1.5900    -1.8260 hc         1 2TZ       0.049033
     63 H28          3.8500    -1.8490    -0.8130 hc         1 2TZ       0.049033
     64 H29          5.2080     1.4620    -1.9850 hc         1 2TZ       0.049033
     65 H30          6.1810     1.8020    -0.5430 hc         1 2TZ       0.049033
     66 H31          6.6450     0.5060    -1.6400 hc         1 2TZ       0.049033
@<TRIPOS>BOND
     1     1     2 ar  
     2     1     7 ar  
     3     1    37 1   
     4     2     3 1   
     5     2     4 ar  
     6     4     5 ar  
     7     4    38 1   
     8     5     6 ar  
     9     5    39 1   
    10     6     7 ar  
    11     6    40 1   
    12     7     8 1   
    13     8     9 1   
    14     8    20 1   
    15     8    41 1   
    16     9    10 1   
    17    10    11 1   
    18    10    15 1   
    19    10    42 1   
    20    11    12 1   
    21    11    43 1   
    22    11    44 1   
    23    12    13 1   
    24    12    14 1   
    25    15    16 2   
    26    15    17 1   
    27    17    18 1   
    28    17    20 1   
    29    18    19 1   
    30    18    32 1   
    31    18    45 1   
    32    19    28 1   
    33    19    46 1   
    34    19    47 1   
    35    20    21 1   
    36    20    48 1   
    37    21    22 ar  
    38    21    27 ar  
    39    22    23 ar  
    40    22    49 1   
    41    23    24 ar  
    42    23    50 1   
    43    24    25 1   
    44    24    26 ar  
    45    26    27 ar  
    46    26    51 1   
    47    27    52 1   
    48    28    29 2   
    49    28    30 2   
    50    28    31 1   
    51    31    34 1   
    52    31    35 1   
    53    31    36 1   
    54    32    33 1   
    55    32    53 1   
    56    32    54 1   
    57    33    55 1   
    58    33    56 1   
    59    33    57 1   
    60    34    58 1   
    61    34    59 1   
    62    34    60 1   
    63    35    61 1   
    64    35    62 1   
    65    35    63 1   
    66    36    64 1   
    67    36    65 1   
    68    36    66 1   
@<TRIPOS>SUBSTRUCTURE
     1 2TZ         1 TEMP              0 ****  ****    0 ROOT
