@<TRIPOS>MOLECULE
2U0
   81    85     1     0     0
SMALL
No Charge or Current Charge


@<TRIPOS>ATOM
      1 C10          3.2200     2.2260    -1.8780 ca         1 2U0      -0.093000
      2 C9           4.4960     2.3440    -2.4530 ca         1 2U0       0.118000
      3 Cl1          5.4440     3.8020    -2.1880 cl         1 2U0      -0.216000
      4 C8           5.0190     1.3020    -3.2330 ca         1 2U0      -0.109000
      5 C7           4.2640     0.1350    -3.4380 ca         1 2U0      -0.106000
      6 C6           2.9870     0.0140    -2.8640 ca         1 2U0      -0.097000
      7 C4           2.4510     1.0610    -2.0820 ca         1 2U0      -0.067300
      8 C3           1.0640     0.9330    -1.4300 c6         1 2U0      -0.021400
      9 C5          -0.0460     0.6660    -2.4680 c6         1 2U0      -0.070400
     10 C2           1.0840    -0.1400    -0.3040 c6         1 2U0       0.174000
     11 C1           1.6910     0.4690     0.9670 ca         1 2U0      -0.084300
     12 C25          0.9600     1.4010     1.7340 ca         1 2U0      -0.118000
     13 C24          1.5230     1.9610     2.8910 ca         1 2U0       0.175000
     14 F1           0.8040     2.8470     3.6170 f          1 2U0      -0.157000
     15 C23          2.8220     1.5970     3.2940 ca         1 2U0       0.065000
     16 Cl2          3.5440     2.2880     4.7470 cl         1 2U0      -0.189000
     17 C22          3.5550     0.6710     2.5330 ca         1 2U0      -0.092000
     18 C21          2.9920     0.1090     1.3730 ca         1 2U0      -0.113000
     19 N1          -0.2080    -0.8370    -0.0140 n          1 2U0      -0.414800
     20 C11         -0.1400    -1.9520     0.9780 c3         1 2U0       0.185700
     21 C12         -0.9820    -1.7210     2.2390 cx         1 2U0      -0.120700
     22 C27         -0.7370    -2.5320     3.4940 cx         1 2U0      -0.132400
     23 C28         -0.3960    -1.0620     3.4680 cx         1 2U0      -0.132400
     24 C13         -0.3970    -3.3420     0.3550 c3         1 2U0      -0.288400
     25 S1           0.7960    -3.7960    -0.9200 s6         1 2U0       1.023000
     26 O2           0.5140    -2.9810    -2.1090 o          1 2U0      -0.527500
     27 O3           2.1330    -3.7280    -0.3170 o          1 2U0      -0.527500
     28 C14          0.4470    -5.5650    -1.3500 c3         1 2U0      -0.214000
     29 C16         -1.0210    -5.7170    -1.8440 c3         1 2U0      -0.083100
     30 C29          1.4150    -5.9940    -2.4890 c3         1 2U0      -0.083100
     31 C15          0.6780    -6.4850    -0.1150 c3         1 2U0      -0.083100
     32 C17         -1.4330    -0.5330    -0.6710 c          1 2U0       0.595000
     33 O1          -2.4680    -1.1190    -0.3780 o          1 2U0      -0.551000
     34 C18         -1.4540     0.5240    -1.8220 c6         1 2U0      -0.107000
     35 C26         -2.4580     0.0610    -2.9330 c3         1 2U0      -0.081100
     36 C19         -1.9670     1.9080    -1.2540 c3         1 2U0      -0.084700
     37 C20         -3.1630     1.8670    -0.3320 cc         1 2U0       0.303700
     38 S2          -4.7920     1.9410    -0.9610 ss         1 2U0       0.126600
     39 N2          -3.0390     1.8560     0.9900 nd         1 2U0      -0.675000
     40 C30         -4.2980     1.8530     1.5730 cd         1 2U0       0.194900
     41 C31         -5.3540     1.8820     0.6870 cc         1 2U0      -0.142300
     42 C32         -6.8300     1.8970     1.0160 c3         1 2U0      -0.163100
     43 C33         -7.3480     3.3150     1.3110 c          1 2U0       0.723000
     44 O5          -7.7150     4.0000     0.3680 o          1 2U0      -0.721000
     45 O4          -7.2430     3.7390     2.4530 o          1 2U0      -0.721000
     46 H1           2.8350     3.0420    -1.2720 ha         1 2U0       0.133000
     47 H2           6.0080     1.3970    -3.6750 ha         1 2U0       0.122000
     48 H3           4.6690    -0.6770    -4.0390 ha         1 2U0       0.115000
     49 H4           2.4200    -0.9010    -3.0230 ha         1 2U0       0.132000
     50 H5           0.8500     1.9010    -0.9670 hc         1 2U0       0.072700
     51 H6          -0.0520     1.4710    -3.2160 hc         1 2U0       0.060200
     52 H7           0.1870    -0.2560    -3.0180 hc         1 2U0       0.060200
     53 H8           1.7690    -0.9280    -0.6430 h1         1 2U0       0.064700
     54 H9          -0.0500     1.6820     1.4460 ha         1 2U0       0.188000
     55 H10          4.5590     0.3890     2.8410 ha         1 2U0       0.125000
     56 H11          3.5710    -0.6040     0.7900 ha         1 2U0       0.127000
     57 H12          0.8980    -1.9950     1.3380 h1         1 2U0       0.060700
     58 H13         -2.0250    -1.5060     2.0240 hc         1 2U0       0.123700
     59 H14         -1.6040    -2.8410     4.0730 hc         1 2U0       0.069450
     60 H15          0.0880    -3.2400     3.4970 hc         1 2U0       0.069450
     61 H16          0.6600    -0.8040     3.4700 hc         1 2U0       0.069450
     62 H17         -1.0320    -0.3790     4.0260 hc         1 2U0       0.069450
     63 H18         -0.3180    -4.1080     1.1300 h1         1 2U0       0.112200
     64 H19         -1.3890    -3.3920    -0.1010 h1         1 2U0       0.112200
     65 H20         -1.2240    -5.0620    -2.7010 hc         1 2U0       0.051811
     66 H21         -1.2190    -6.7490    -2.1610 hc         1 2U0       0.051811
     67 H22         -1.7400    -5.4740    -1.0530 hc         1 2U0       0.051811
     68 H23          2.4630    -5.9000    -2.1750 hc         1 2U0       0.051811
     69 H24          1.2450    -7.0390    -2.7770 hc         1 2U0       0.051811
     70 H25          1.2750    -5.3750    -3.3850 hc         1 2U0       0.051811
     71 H26         -0.0270    -6.2640     0.6940 hc         1 2U0       0.051811
     72 H27          0.5400    -7.5390    -0.3870 hc         1 2U0       0.051811
     73 H28          1.6960    -6.3750     0.2790 hc         1 2U0       0.051811
     74 H29         -3.4780    -0.0630    -2.5540 hc         1 2U0       0.048033
     75 H30         -2.5010     0.7790    -3.7600 hc         1 2U0       0.048033
     76 H31         -2.1570    -0.9060    -3.3570 hc         1 2U0       0.048033
     77 H32         -1.1750     2.4170    -0.6990 hc         1 2U0       0.050200
     78 H33         -2.1890     2.5850    -2.0880 hc         1 2U0       0.050200
     79 H34         -4.3830     1.8310     2.6520 h4         1 2U0       0.019100
     80 H35         -7.3490     1.4920     0.1400 hc         1 2U0       0.043700
     81 H36         -6.9490     1.2710     1.9090 hc         1 2U0       0.043700
@<TRIPOS>BOND
     1     1     2 ar  
     2     1     7 ar  
     3     1    46 1   
     4     2     3 1   
     5     2     4 ar  
     6     4     5 ar  
     7     4    47 1   
     8     5     6 ar  
     9     5    48 1   
    10     6     7 ar  
    11     6    49 1   
    12     7     8 1   
    13     8     9 1   
    14     8    10 1   
    15     8    50 1   
    16     9    34 1   
    17     9    51 1   
    18     9    52 1   
    19    10    11 1   
    20    10    19 1   
    21    10    53 1   
    22    11    12 ar  
    23    11    18 ar  
    24    12    13 ar  
    25    12    54 1   
    26    13    14 1   
    27    13    15 ar  
    28    15    16 1   
    29    15    17 ar  
    30    17    18 ar  
    31    17    55 1   
    32    18    56 1   
    33    19    20 1   
    34    19    32 1   
    35    20    21 1   
    36    20    24 1   
    37    20    57 1   
    38    21    22 1   
    39    21    23 1   
    40    21    58 1   
    41    22    23 1   
    42    22    59 1   
    43    22    60 1   
    44    23    61 1   
    45    23    62 1   
    46    24    25 1   
    47    24    63 1   
    48    24    64 1   
    49    25    26 2   
    50    25    27 2   
    51    25    28 1   
    52    28    29 1   
    53    28    30 1   
    54    28    31 1   
    55    29    65 1   
    56    29    66 1   
    57    29    67 1   
    58    30    68 1   
    59    30    69 1   
    60    30    70 1   
    61    31    71 1   
    62    31    72 1   
    63    31    73 1   
    64    32    33 2   
    65    32    34 1   
    66    34    35 1   
    67    34    36 1   
    68    35    74 1   
    69    35    75 1   
    70    35    76 1   
    71    36    37 1   
    72    36    77 1   
    73    36    78 1   
    74    37    38 1   
    75    37    39 2   
    76    38    41 1   
    77    39    40 1   
    78    40    41 2   
    79    40    79 1   
    80    41    42 1   
    81    42    43 1   
    82    42    80 1   
    83    42    81 1   
    84    43    44 1   
    85    43    45 1   
@<TRIPOS>SUBSTRUCTURE
     1 2U0         1 TEMP              0 ****  ****    0 ROOT
