@<TRIPOS>MOLECULE
2U0
   81    85     1     0     0
SMALL
abcg2


@<TRIPOS>ATOM
      1 C10          3.2950     2.1000    -1.8740 ca         1 2U0      -0.093000
      2 C9           4.5730     2.1350    -2.4120 ca         1 2U0       0.118000
      3 CL1          5.5110     3.5870    -2.2570 cl         1 2U0      -0.216000
      4 C8           5.1150     1.0420    -3.0640 ca         1 2U0      -0.109000
      5 C7           4.3490    -0.1110    -3.1710 ca         1 2U0      -0.106000
      6 C6           3.0720    -0.1630    -2.6360 ca         1 2U0      -0.097000
      7 C4           2.5310     0.9450    -1.9850 ca         1 2U0      -0.067300
      8 C3           1.1380     0.9040    -1.4050 c6         1 2U0      -0.021400
      9 C5           0.0810     0.6440    -2.4670 c6         1 2U0      -0.070400
     10 C2           1.0800    -0.1370    -0.2710 c6         1 2U0       0.174000
     11 C1           1.6360     0.4870     0.9890 ca         1 2U0      -0.084300
     12 C25          0.8790     1.4050     1.7110 ca         1 2U0      -0.118000
     13 C24          1.4300     2.0040     2.8210 ca         1 2U0       0.175000
     14 F1           0.7070     2.8770     3.5280 f          1 2U0      -0.157000
     15 C23          2.7210     1.7140     3.2370 ca         1 2U0       0.065000
     16 CL2          3.3570     2.4910     4.6390 cl         1 2U0      -0.189000
     17 C22          3.4740     0.7980     2.5230 ca         1 2U0      -0.092000
     18 C21          2.9260     0.1880     1.4030 ca         1 2U0      -0.113000
     19 N1          -0.2390    -0.7190    -0.0390 n          1 2U0      -0.414800
     20 C11         -0.2480    -1.8230     0.9290 c3         1 2U0       0.185700
     21 C12         -1.1170    -1.5660     2.1410 cx         1 2U0      -0.120700
     22 C27         -0.9370    -2.4320     3.3530 cx         1 2U0      -0.132400
     23 C28         -0.5230    -0.9940     3.3890 cx         1 2U0      -0.132400
     24 C13         -0.6160    -3.1770     0.3060 c3         1 2U0      -0.288400
     25 S1           0.4200    -3.5910    -1.1060 s6         1 2U0       1.023000
     26 O2          -0.0600    -2.8540    -2.2810 o          1 2U0      -0.527500
     27 O3           1.8240    -3.3960    -0.7160 o          1 2U0      -0.527500
     28 C14          0.1630    -5.3790    -1.4130 c3         1 2U0      -0.214000
     29 C16         -1.3290    -5.6360    -1.5940 c3         1 2U0      -0.083100
     30 C29          0.9240    -5.6830    -2.7020 c3         1 2U0      -0.083100
     31 C15          0.7410    -6.1730    -0.2480 c3         1 2U0      -0.083100
     32 C17         -1.3670    -0.4560    -0.7420 c          1 2U0       0.595000
     33 O1          -2.4130    -1.0350    -0.4940 o          1 2U0      -0.551000
     34 C18         -1.3210     0.5760    -1.8650 c6         1 2U0      -0.107000
     35 C26         -2.3030     0.1460    -2.9540 c3         1 2U0      -0.081100
     36 C19         -1.7410     1.9700    -1.3150 c3         1 2U0      -0.084700
     37 C20         -2.8110     1.9330    -0.2760 cc         1 2U0       0.303700
     38 S2          -4.4940     1.8690    -0.6470 ss         1 2U0       0.126600
     39 N2          -2.5450     1.9370     0.9930 nd         1 2U0      -0.675000
     40 C30         -3.6890     1.8430     1.7310 cd         1 2U0       0.194900
     41 C31         -4.8590     1.7900     1.0380 cc         1 2U0      -0.142300
     42 C32         -6.2330     1.6140     1.5810 c3         1 2U0      -0.163100
     43 C33         -7.3750     2.2520     0.7650 c          1 2U0       0.723000
     44 O5          -7.1590     2.4320    -0.4490 o          1 2U0      -0.721000
     45 O4          -8.4260     2.4840     1.3860 o          1 2U0      -0.721000
     46 H1           2.8960     2.9710    -1.3700 ha         1 2U0       0.133000
     47 H2           6.1130     1.0830    -3.4810 ha         1 2U0       0.122000
     48 H3           4.7580    -0.9760    -3.6760 ha         1 2U0       0.115000
     49 H4           2.4960    -1.0770    -2.7220 ha         1 2U0       0.132000
     50 H5           0.9490     1.8890    -0.9740 hc         1 2U0       0.072700
     51 H6           0.1220     1.4360    -3.2200 hc         1 2U0       0.060200
     52 H7           0.2880    -0.2960    -2.9830 hc         1 2U0       0.060200
     53 H8           1.7380    -0.9630    -0.5470 h1         1 2U0       0.064700
     54 H9          -0.1510     1.6300     1.4440 ha         1 2U0       0.188000
     55 H10          4.4790     0.5600     2.8420 ha         1 2U0       0.125000
     56 H11          3.5190    -0.5310     0.8510 ha         1 2U0       0.127000
     57 H12          0.7800    -1.9140     1.2880 h1         1 2U0       0.060700
     58 H13         -2.1330    -1.2680     1.9210 hc         1 2U0       0.123700
     59 H14         -1.8230    -2.7410     3.8930 hc         1 2U0       0.069450
     60 H15         -0.1480    -3.1740     3.3390 hc         1 2U0       0.069450
     61 H16          0.5390    -0.7840     3.4020 hc         1 2U0       0.069450
     62 H17         -1.1210    -0.2900     3.9540 hc         1 2U0       0.069450
     63 H18         -0.4620    -3.9530     1.0580 h1         1 2U0       0.112200
     64 H19         -1.6510    -3.2150    -0.0220 h1         1 2U0       0.112200
     65 H20         -1.7540    -5.0130    -2.3810 hc         1 2U0       0.051811
     66 H21         -1.4690    -6.6770    -1.8860 hc         1 2U0       0.051811
     67 H22         -1.8970    -5.4760    -0.6780 hc         1 2U0       0.051811
     68 H23          1.9810    -5.4330    -2.6210 hc         1 2U0       0.051811
     69 H24          0.8520    -6.7530    -2.8970 hc         1 2U0       0.051811
     70 H25          0.5010    -5.1590    -3.5590 hc         1 2U0       0.051811
     71 H26          0.2810    -5.9200     0.7080 hc         1 2U0       0.051811
     72 H27          0.5520    -7.2330    -0.4220 hc         1 2U0       0.051811
     73 H28          1.8170    -6.0360    -0.1600 hc         1 2U0       0.051811
     74 H29         -3.3310     0.1230    -2.5970 hc         1 2U0       0.048033
     75 H30         -2.2540     0.8500    -3.7870 hc         1 2U0       0.048033
     76 H31         -2.0560    -0.8460    -3.3350 hc         1 2U0       0.048033
     77 H32         -0.8920     2.4750    -0.8560 hc         1 2U0       0.050200
     78 H33         -2.0420     2.5840    -2.1670 hc         1 2U0       0.050200
     79 H34         -3.6230     1.8180     2.8110 h4         1 2U0       0.019100
     80 H35         -6.4570     0.5410     1.6380 hc         1 2U0       0.043700
     81 H36         -6.2570     1.9720     2.6120 hc         1 2U0       0.043700
@<TRIPOS>BOND
     1     1     2 ar  
     2     1     7 ar  
     3     1    46 1   
     4     2     3 1   
     5     2     4 ar  
     6     4     5 ar  
     7     4    47 1   
     8     5     6 ar  
     9     5    48 1   
    10     6     7 ar  
    11     6    49 1   
    12     7     8 1   
    13     8     9 1   
    14     8    10 1   
    15     8    50 1   
    16     9    34 1   
    17     9    51 1   
    18     9    52 1   
    19    10    11 1   
    20    10    19 1   
    21    10    53 1   
    22    11    12 ar  
    23    11    18 ar  
    24    12    13 ar  
    25    12    54 1   
    26    13    14 1   
    27    13    15 ar  
    28    15    16 1   
    29    15    17 ar  
    30    17    18 ar  
    31    17    55 1   
    32    18    56 1   
    33    19    20 1   
    34    19    32 1   
    35    20    21 1   
    36    20    24 1   
    37    20    57 1   
    38    21    22 1   
    39    21    23 1   
    40    21    58 1   
    41    22    23 1   
    42    22    59 1   
    43    22    60 1   
    44    23    61 1   
    45    23    62 1   
    46    24    25 1   
    47    24    63 1   
    48    24    64 1   
    49    25    26 2   
    50    25    27 2   
    51    25    28 1   
    52    28    29 1   
    53    28    30 1   
    54    28    31 1   
    55    29    65 1   
    56    29    66 1   
    57    29    67 1   
    58    30    68 1   
    59    30    69 1   
    60    30    70 1   
    61    31    71 1   
    62    31    72 1   
    63    31    73 1   
    64    32    33 2   
    65    32    34 1   
    66    34    35 1   
    67    34    36 1   
    68    35    74 1   
    69    35    75 1   
    70    35    76 1   
    71    36    37 1   
    72    36    77 1   
    73    36    78 1   
    74    37    38 1   
    75    37    39 2   
    76    38    41 1   
    77    39    40 1   
    78    40    41 2   
    79    40    79 1   
    80    41    42 1   
    81    42    43 1   
    82    42    80 1   
    83    42    81 1   
    84    43    44 1   
    85    43    45 1   
@<TRIPOS>SUBSTRUCTURE
     1 2U0         1 TEMP              0 ****  ****    0 ROOT
