@<TRIPOS>MOLECULE
2U2
   55    56     1     0     0
SMALL
abcg2


@<TRIPOS>ATOM
      1 C3          -0.2590    -3.4640     1.2250 cc         1 2U2      -0.268000
      2 C2          -0.0810    -2.2060     0.7550 cd         1 2U2       0.298700
      3 C5           1.9820    -2.9150     0.4410 cc         1 2U2       0.759300
      4 C12         -5.3060     1.0550     0.1170 cc         1 2U2      -0.334200
      5 C15         -7.7450     0.2650    -0.9000 cc         1 2U2      -0.046000
      6 C14         -7.6100     1.5440    -0.4790 cd         1 2U2      -0.042100
      7 C11         -5.4870    -0.2290    -0.3200 cd         1 2U2       0.143800
      8 C13         -6.3540     2.0230     0.0700 c          1 2U2       0.542500
      9 C23          0.9370     2.9350    -0.0360 c          1 2U2       0.580900
     10 C6          -1.1470    -1.1930     0.6800 cf         1 2U2       0.326300
     11 C20         -0.8820     0.2300     1.1320 c          1 2U2       0.506800
     12 C34          6.2290    -0.3280     1.3800 c          1 2U2       0.630700
     13 C30          4.7970     0.2010    -0.7500 c3         1 2U2      -0.116700
     14 C31          5.3560     1.4580    -1.4120 c3         1 2U2      -0.189400
     15 C26          2.1440     1.8720     1.8580 c3         1 2U2       0.173600
     16 C22          0.8080     1.9940     1.1410 c3         1 2U2      -0.025300
     17 N1           1.1820    -1.9000     0.3160 nd         1 2U2      -0.737000
     18 N7          -2.2740    -1.6270     0.2730 n2         1 2U2      -0.333700
     19 N24          4.1420     0.7940     1.5460 n2         1 2U2      -0.365700
     20 N16         -6.6910    -0.5930    -0.7990 na         1 2U2      -0.285700
     21 N9           3.2930    -2.8990     0.1320 nv         1 2U2      -1.010900
     22 N21          0.3080     0.7080     0.7460 ns         1 2U2      -0.448900
     23 O36          7.1220    -0.6520     0.5760 o          1 2U2      -0.711000
     24 O33          4.7370     0.5120    -3.5200 o          1 2U2      -0.763000
     25 O17         -6.2680     3.2030     0.4480 o          1 2U2      -0.600100
     26 O28         -1.6950     0.8460     1.7980 o          1 2U2      -0.625100
     27 O35          6.2560    -0.4120     2.6180 o          1 2U2      -0.711000
     28 O37          5.6440     2.5460    -3.4910 o          1 2U2      -0.763000
     29 O18         -6.8510    -1.8490    -1.2920 oh         1 2U2      -0.369300
     30 O8          -3.2630    -0.7120     0.2430 os         1 2U2      -0.269000
     31 S4           1.2270    -4.3340     1.1170 ss         1 2U2      -0.154400
     32 H1          -1.1500    -3.9150     1.6310 h4         1 2U2       0.153000
     33 H2          -4.3440     1.3530     0.5080 ha         1 2U2       0.258000
     34 H3          -8.6560    -0.1390    -1.3180 h4         1 2U2       0.217000
     35 H4           1.3910     3.9090     0.2210 h4         1 2U2      -0.014800
     36 H5          -4.7450    -2.1520     0.2770 h1         1 2U2       0.056700
     37 H6          -4.2300    -1.6350    -1.3350 h1         1 2U2       0.056700
     38 H7           5.3290    -0.6700    -1.1330 hc         1 2U2       0.042700
     39 H8           3.7440     0.0920    -1.0180 hc         1 2U2       0.042700
     40 H9           6.4150     1.5620    -1.1510 hc         1 2U2       0.028200
     41 H10          4.8650     2.3450    -1.0010 hc         1 2U2       0.028200
     42 H11          2.4770     2.8570     2.2070 h1         1 2U2       0.033200
     43 H12          2.0360     1.2210     2.7290 h1         1 2U2       0.033200
     44 H13          0.1090     2.4650     1.8400 h1         1 2U2       0.076700
     45 H14          3.6060    -2.1370    -0.4470 hn         1 2U2       0.507000
     46 H15          3.7720    -3.7690    -0.0270 hn         1 2U2       0.507000
     47 H16          0.9500     0.0660     0.2870 hn         1 2U2       0.383500
     48 H19         -8.2910     3.2540    -0.1930 ho         1 2U2       0.492000
     49 H20         -7.2280    -2.3830    -0.5760 ho         1 2U2       0.448000
     50 O27          0.5710     2.6830    -1.1520 o          1 2U2      -0.495100
     51 C32          5.2300     1.5010    -2.9460 c          1 2U2       0.721000
     52 O25          3.0430     1.3280     0.9180 os         1 2U2      -0.345000
     53 C10         -4.4230    -1.2890    -0.3150 c3         1 2U2       0.209800
     54 O19         -8.6240     2.4160    -0.5540 oh         1 2U2      -0.535100
     55 C29          4.9610     0.2510     0.7380 ce         1 2U2       0.306300
@<TRIPOS>BOND
     1     1     2 2   
     2     1    31 1   
     3     1    32 1   
     4     2    10 1   
     5     2    17 1   
     6     3    17 2   
     7     3    21 1   
     8     3    31 1   
     9     4     7 2   
    10     4     8 1   
    11     4    33 1   
    12     5     6 2   
    13     5    20 1   
    14     5    34 1   
    15     6     8 1   
    16     6    54 1   
    17     7    20 1   
    18     7    53 1   
    19     8    25 2   
    20     9    16 1   
    21     9    35 1   
    22     9    50 2   
    23    10    11 1   
    24    10    18 2   
    25    11    22 1   
    26    11    26 2   
    27    12    23 1   
    28    12    27 1   
    29    12    55 1   
    30    13    14 1   
    31    13    38 1   
    32    13    39 1   
    33    13    55 1   
    34    14    40 1   
    35    14    41 1   
    36    14    51 1   
    37    15    16 1   
    38    15    42 1   
    39    15    43 1   
    40    15    52 1   
    41    16    22 1   
    42    16    44 1   
    43    18    30 1   
    44    19    52 1   
    45    19    55 2   
    46    20    29 1   
    47    21    45 1   
    48    21    46 1   
    49    22    47 1   
    50    24    51 1   
    51    28    51 1   
    52    29    49 1   
    53    30    53 1   
    54    36    53 1   
    55    37    53 1   
    56    48    54 1   
@<TRIPOS>SUBSTRUCTURE
     1 2U2         1 TEMP              0 ****  ****    0 ROOT
