@<TRIPOS>MOLECULE
2U2
   55    56     1     0     0
SMALL
No Charge or Current Charge


@<TRIPOS>ATOM
      1 C3          -1.3190    -1.2190    -1.2180 cc         1 2U2      -0.268000
      2 C2          -0.9080     0.0460    -0.8310 cd         1 2U2       0.298700
      3 C5          -0.0450    -0.0530    -2.8620 cc         1 2U2       0.759300
      4 C12         -5.8390    -0.6680    -0.8000 cc         1 2U2      -0.334200
      5 C15         -8.1850    -1.3800     0.6520 cc         1 2U2      -0.046000
      6 C14         -8.2000    -1.3690    -0.7260 cd         1 2U2      -0.042100
      7 C11         -5.7610    -0.6580     0.5780 cd         1 2U2       0.143800
      8 C13         -7.0250    -1.0090    -1.5460 c          1 2U2       0.542500
      9 C23          2.9230     3.3090    -0.2010 c          1 2U2       0.580900
     10 C6          -1.1970     0.6520     0.5020 cf         1 2U2       0.326300
     11 C20         -0.2030     1.5950     1.1760 c          1 2U2       0.506800
     12 C34          5.5390    -1.8680     2.7660 c          1 2U2       0.630700
     13 C30          5.4390    -0.8670     0.3070 c3         1 2U2      -0.116700
     14 C31          6.5480     0.1330    -0.1240 c3         1 2U2      -0.189400
     15 C26          2.9220     2.0620     2.0080 c3         1 2U2       0.173600
     16 C22          2.0480     2.7900     0.9610 c3         1 2U2      -0.025300
     17 N1          -0.1500     0.7050    -1.8070 nd         1 2U2      -0.737000
     18 N7          -2.2490     0.3260     1.2150 n2         1 2U2      -0.333700
     19 N24          4.3750     0.2460     2.2890 n2         1 2U2      -0.365700
     20 N16         -6.9640    -1.0100     1.2550 na         1 2U2      -0.285700
     21 N9           0.6420     0.4240    -3.8940 nv         1 2U2      -1.010900
     22 N21          0.9280     1.9490     0.4570 ns         1 2U2      -0.448900
     23 O36          6.2000    -2.8090     2.3370 o          1 2U2      -0.711000
     24 O33          7.8060    -0.8850    -1.8640 o          1 2U2      -0.763000
     25 O17         -7.0560    -1.0030    -2.7720 o          1 2U2      -0.600100
     26 O28         -0.3620     2.0470     2.3100 o          1 2U2      -0.625100
     27 O35          5.2550    -1.7940     3.9600 o          1 2U2      -0.711000
     28 O37          6.3110     0.5440    -2.4530 o          1 2U2      -0.763000
     29 O18         -6.8930    -0.9910     2.6560 oh         1 2U2      -0.369300
     30 O8          -3.4220     0.0440     0.4810 os         1 2U2      -0.269000
     31 S4          -0.8060    -1.6090    -2.8370 ss         1 2U2      -0.154400
     32 H1          -1.8980    -1.9370    -0.6520 h4         1 2U2       0.153000
     33 H2          -4.9870    -0.4160    -1.4190 ha         1 2U2       0.258000
     34 H3          -9.0250    -1.6440     1.2870 h4         1 2U2       0.217000
     35 H4           3.8170     3.8970     0.1040 h4         1 2U2      -0.014800
     36 H5          -4.7240     0.5200     2.0470 h1         1 2U2       0.056700
     37 H6          -4.2220    -1.1820     1.9780 h1         1 2U2       0.056700
     38 H7           5.7810    -1.8790     0.0630 hc         1 2U2       0.042700
     39 H8           4.5530    -0.7140    -0.3220 hc         1 2U2       0.042700
     40 H9           7.4070    -0.0830     0.5230 hc         1 2U2       0.028200
     41 H10          6.1270     1.1340     0.0230 hc         1 2U2       0.028200
     42 H11          3.6640     2.7640     2.4120 h1         1 2U2       0.033200
     43 H12          2.2920     1.7170     2.8390 h1         1 2U2       0.033200
     44 H13          1.6210     3.6790     1.4420 h1         1 2U2       0.076700
     45 H14          0.7980     1.4220    -3.8510 hn         1 2U2       0.507000
     46 H15          0.4110     0.0480    -4.8050 hn         1 2U2       0.507000
     47 H16          0.9750     1.5960    -0.5010 hn         1 2U2       0.383500
     48 H19         -9.0660    -1.6130    -2.3930 ho         1 2U2       0.492000
     49 H20         -7.2410    -0.1190     2.9530 ho         1 2U2       0.448000
     50 O27          2.6760     3.1110    -1.3870 o          1 2U2      -0.495100
     51 C32          6.9290    -0.0760    -1.6020 c          1 2U2       0.721000
     52 O25          3.5740     0.9510     1.3630 os         1 2U2      -0.345000
     53 C10         -4.5020    -0.3130     1.3690 c3         1 2U2       0.209800
     54 O19         -9.3130    -1.6970    -1.4400 oh         1 2U2      -0.535100
     55 C29          5.0600    -0.7610     1.7980 ce         1 2U2       0.306300
@<TRIPOS>BOND
     1     1     2 2   
     2     1    31 1   
     3     1    32 1   
     4     2    10 1   
     5     2    17 1   
     6     3    17 2   
     7     3    21 1   
     8     3    31 1   
     9     4     7 2   
    10     4     8 1   
    11     4    33 1   
    12     5     6 2   
    13     5    20 1   
    14     5    34 1   
    15     6     8 1   
    16     6    54 1   
    17     7    20 1   
    18     7    53 1   
    19     8    25 2   
    20     9    16 1   
    21     9    35 1   
    22     9    50 2   
    23    10    11 1   
    24    10    18 2   
    25    11    22 1   
    26    11    26 2   
    27    12    23 1   
    28    12    27 1   
    29    12    55 1   
    30    13    14 1   
    31    13    38 1   
    32    13    39 1   
    33    13    55 1   
    34    14    40 1   
    35    14    41 1   
    36    14    51 1   
    37    15    16 1   
    38    15    42 1   
    39    15    43 1   
    40    15    52 1   
    41    16    22 1   
    42    16    44 1   
    43    18    30 1   
    44    19    52 1   
    45    19    55 2   
    46    20    29 1   
    47    21    45 1   
    48    21    46 1   
    49    22    47 1   
    50    24    51 1   
    51    28    51 1   
    52    29    49 1   
    53    30    53 1   
    54    36    53 1   
    55    37    53 1   
    56    48    54 1   
@<TRIPOS>SUBSTRUCTURE
     1 2U2         1 TEMP              0 ****  ****    0 ROOT
