@<TRIPOS>MOLECULE
2U3
   55    56     1     0     0
SMALL
No Charge or Current Charge


@<TRIPOS>ATOM
      1 N            0.7720    -0.4310    -0.5870 ns         1 2U3      -0.472900
      2 CA           1.7980     0.6050    -0.8190 c3         1 2U3       0.115700
      3 C            2.2410     0.5860    -2.3170 c3         1 2U3       0.152600
      4 O            2.4190    -0.7570    -2.8140 oh         1 2U3      -0.664000
      5 C2           2.9780     0.5530     0.2310 c3         1 2U3       0.166200
      6 N3           0.4590    -3.1070     0.2790 nc         1 2U3      -0.697000
      7 C4          -0.8780    -2.8390     0.0420 cc         1 2U3       0.288700
      8 C5          -1.6490    -3.9670    -0.1720 cd         1 2U3      -0.239000
      9 S6          -0.6920    -5.4370    -0.1040 ss         1 2U3      -0.111400
     10 C7           0.6680    -4.3930     0.2350 cd         1 2U3       0.707300
     11 N8           1.9230    -4.8060     0.4360 nv         1 2U3      -1.038900
     12 C9          -1.3950    -1.4470     0.0700 ce         1 2U3       0.310300
     13 C10         -0.4480    -0.2480     0.0450 c          1 2U3       0.522800
     14 N11         -2.6740    -1.2540    -0.1160 n2         1 2U3      -0.324700
     15 O12         -0.7630     0.8660     0.4580 o          1 2U3      -0.584100
     16 C13          2.4220     0.6130     1.6830 c3         1 2U3      -0.092100
     17 C14          3.8420    -0.7280     0.0640 c3         1 2U3      -0.092100
     18 O15          5.0500     1.8280     0.9240 os         1 2U3      -0.409000
     19 S16          6.5350     2.2060     0.2350 s6         1 2U3       1.505300
     20 O17          7.4520     2.2840     1.3850 o          1 2U3      -0.708533
     21 O18          6.8180     1.0900    -0.6840 o          1 2U3      -0.708533
     22 O19          6.3100     3.4960    -0.4410 o          1 2U3      -0.708533
     23 O20         -2.9830    -0.4220    -1.2190 os         1 2U3      -0.287000
     24 C21         -4.4150    -0.2690    -1.3710 c3         1 2U3       0.209800
     25 C22         -4.9950     0.5840    -0.2460 cc         1 2U3       0.114800
     26 N23         -6.3410     0.3810     0.1890 na         1 2U3      -0.282700
     27 C24         -6.8860     1.0800     1.2950 cc         1 2U3      -0.048000
     28 C25         -6.1410     2.0850     1.8690 cd         1 2U3      -0.036100
     29 C26         -4.7900     2.4440     1.4240 c          1 2U3       0.542500
     30 C27         -4.3020     1.6180     0.3520 cd         1 2U3      -0.344200
     31 O28         -7.1490    -0.5670    -0.4510 oh         1 2U3      -0.372300
     32 O29         -4.1330     3.3510     1.9240 o          1 2U3      -0.590100
     33 O30         -6.6130     2.8300     2.9080 oh         1 2U3      -0.530100
     34 H1           0.9850    -1.3750    -0.8940 hn         1 2U3       0.327500
     35 H2           1.3140     1.5800    -0.6750 h1         1 2U3       0.071700
     36 H3           1.4570     1.0850    -2.9040 h1         1 2U3       0.038200
     37 H4           3.1590     1.1740    -2.4490 h1         1 2U3       0.038200
     38 H5           2.6960    -0.6810    -3.7530 ho         1 2U3       0.438000
     39 H6           3.3040     2.6120     0.2150 hn         1 2U3       0.394000
     40 H7          -2.7140    -4.0130    -0.3640 h4         1 2U3       0.169000
     41 H8           2.6250    -4.0820     0.3640 hn         1 2U3       0.484000
     42 H9           2.1740    -5.7200     0.0780 hn         1 2U3       0.484000
     43 H10          1.8170    -0.2720     1.9110 hc         1 2U3       0.043367
     44 H11          3.2330     0.6470     2.4200 hc         1 2U3       0.043367
     45 H12          1.7950     1.5010     1.8270 hc         1 2U3       0.043367
     46 H13          4.3740    -0.7280    -0.8940 hc         1 2U3       0.043367
     47 H14          4.5930    -0.8070     0.8600 hc         1 2U3       0.043367
     48 H15          3.2190    -1.6290     0.1090 hc         1 2U3       0.043367
     49 H16         -4.6370     0.2270    -2.3240 h1         1 2U3       0.074200
     50 H17         -4.8990    -1.2530    -1.3930 h1         1 2U3       0.074200
     51 H18         -7.8870     0.8110     1.6170 h4         1 2U3       0.222000
     52 H19         -3.2920     1.8610     0.0490 ha         1 2U3       0.248000
     53 H20         -7.6940    -0.0840    -1.1140 ho         1 2U3       0.449000
     54 H21         -5.9020     3.4780     3.1340 ho         1 2U3       0.494000
     55 N1           3.8370     1.7520     0.0280 n7         1 2U3      -0.560900
@<TRIPOS>BOND
     1     1     2 1   
     2     1    13 1   
     3     1    34 1   
     4     2     3 1   
     5     2     5 1   
     6     2    35 1   
     7     3     4 1   
     8     3    36 1   
     9     3    37 1   
    10     4    38 1   
    11     5    16 1   
    12     5    17 1   
    13     5    55 1   
    14     6     7 1   
    15     6    10 2   
    16     7     8 2   
    17     7    12 1   
    18     8     9 1   
    19     8    40 1   
    20     9    10 1   
    21    10    11 1   
    22    11    41 1   
    23    11    42 1   
    24    12    13 1   
    25    12    14 2   
    26    13    15 2   
    27    14    23 1   
    28    16    43 1   
    29    16    44 1   
    30    16    45 1   
    31    17    46 1   
    32    17    47 1   
    33    17    48 1   
    34    18    19 1   
    35    18    55 1   
    36    19    20 1   
    37    19    21 1   
    38    19    22 1   
    39    23    24 1   
    40    24    25 1   
    41    24    49 1   
    42    24    50 1   
    43    25    26 1   
    44    25    30 2   
    45    26    27 1   
    46    26    31 1   
    47    27    28 2   
    48    27    51 1   
    49    28    29 1   
    50    28    33 1   
    51    29    30 1   
    52    29    32 2   
    53    30    52 1   
    54    31    53 1   
    55    33    54 1   
    56    39    55 1   
@<TRIPOS>SUBSTRUCTURE
     1 2U3         1 TEMP              0 ****  ****    0 ROOT
