@<TRIPOS>MOLECULE
2U3
   55    56     1     0     0
SMALL
abcg2


@<TRIPOS>ATOM
      1 N            0.7370    -0.1650    -0.6860 ns         1 2U3      -0.472900
      2 CA           1.7750     0.8380    -0.8040 c3         1 2U3       0.115700
      3 C            1.8280     1.3220    -2.2500 c3         1 2U3       0.152600
      4 O            1.9550     0.2230    -3.1240 oh         1 2U3      -0.664000
      5 C2           3.1130     0.3450    -0.1810 c3         1 2U3       0.166200
      6 N3           0.2040    -2.5140     1.5760 nc         1 2U3      -0.697000
      7 C4          -0.8480    -2.5400     0.6990 cc         1 2U3       0.288700
      8 C5          -1.4250    -3.7500     0.4880 cd         1 2U3      -0.239000
      9 S6          -0.6280    -4.9380     1.4470 ss         1 2U3      -0.111400
     10 C7           0.4410    -3.6960     2.0530 cd         1 2U3       0.707300
     11 N8           1.3790    -3.9740     2.9830 nv         1 2U3      -1.038900
     12 C9          -1.2360    -1.2840     0.0620 ce         1 2U3       0.310300
     13 C10         -0.2790    -0.1170     0.1770 c          1 2U3       0.522800
     14 N11         -2.3660    -1.2050    -0.5130 n2         1 2U3      -0.324700
     15 O12         -0.4730     0.7490     1.0120 o          1 2U3      -0.584100
     16 C13          2.8820     0.0220     1.2990 c3         1 2U3      -0.092100
     17 C14          3.6810    -0.8840    -0.8820 c3         1 2U3      -0.092100
     18 O15          5.2600     1.2000     0.2450 os         1 2U3      -0.409000
     19 S16          6.5230     1.5970    -0.7590 s6         1 2U3       1.505300
     20 O17          7.6350     1.2050     0.1060 o          1 2U3      -0.708533
     21 O18          6.3750     0.7910    -1.9700 o          1 2U3      -0.708533
     22 O19          6.3990     3.0380    -0.9840 o          1 2U3      -0.708533
     23 O20         -2.5470    -0.0010    -1.1360 os         1 2U3      -0.287000
     24 C21         -3.8910     0.1490    -1.5140 c3         1 2U3       0.209800
     25 C22         -4.7500     0.5830    -0.3520 cc         1 2U3       0.114800
     26 N23         -6.0800     0.6170    -0.5510 na         1 2U3      -0.282700
     27 C24         -6.9730     0.9810     0.4130 cc         1 2U3      -0.048000
     28 C25         -6.5240     1.3550     1.6330 cd         1 2U3      -0.036100
     29 C26         -5.1030     1.3720     1.9360 c          1 2U3       0.542500
     30 C27         -4.2540     0.9620     0.8660 cd         1 2U3      -0.344200
     31 O28         -6.5810     0.2030    -1.7460 oh         1 2U3      -0.372300
     32 O29         -4.7280     1.7270     3.0660 o          1 2U3      -0.590100
     33 O30         -7.3680     1.7270     2.6050 oh         1 2U3      -0.530100
     34 H1           0.7450    -0.9110    -1.3650 hn         1 2U3       0.327500
     35 H2           1.4510     1.7000    -0.2130 h1         1 2U3       0.071700
     36 H3           0.8970     1.8690    -2.4420 h1         1 2U3       0.038200
     37 H4           2.6530     2.0300    -2.3600 h1         1 2U3       0.038200
     38 H5           1.7930     0.5310    -4.0200 ho         1 2U3       0.438000
     39 H6           3.6600     2.2680     0.1800 hn         1 2U3       0.394000
     40 H7          -2.2380    -4.0080    -0.1700 h4         1 2U3       0.169000
     41 H8           2.0770    -3.2620     3.1270 hn         1 2U3       0.484000
     42 H9           1.7290    -4.9150     3.0540 hn         1 2U3       0.484000
     43 H10          2.1830    -0.8040     1.4220 hc         1 2U3       0.043367
     44 H11          3.8180    -0.2670     1.7770 hc         1 2U3       0.043367
     45 H12          2.4790     0.8840     1.8360 hc         1 2U3       0.043367
     46 H13          3.9810    -0.6720    -1.9030 hc         1 2U3       0.043367
     47 H14          4.5500    -1.2560    -0.3410 hc         1 2U3       0.043367
     48 H15          2.9440    -1.6870    -0.8940 hc         1 2U3       0.043367
     49 H16         -3.9000     0.9160    -2.2920 h1         1 2U3       0.074200
     50 H17         -4.2680    -0.7780    -1.9520 h1         1 2U3       0.074200
     51 H18         -8.0180     0.9520     0.1380 h4         1 2U3       0.222000
     52 H19         -3.1860     0.9580     1.0330 ha         1 2U3       0.248000
     53 H20         -6.6920     0.9970    -2.2910 ho         1 2U3       0.449000
     54 H21         -6.8180     1.9430     3.3760 ho         1 2U3       0.494000
     55 N1           4.0210     1.4850    -0.3590 n7         1 2U3      -0.560900
@<TRIPOS>BOND
     1     1     2 1   
     2     1    13 1   
     3     1    34 1   
     4     2     3 1   
     5     2     5 1   
     6     2    35 1   
     7     3     4 1   
     8     3    36 1   
     9     3    37 1   
    10     4    38 1   
    11     5    16 1   
    12     5    17 1   
    13     5    55 1   
    14     6     7 1   
    15     6    10 2   
    16     7     8 2   
    17     7    12 1   
    18     8     9 1   
    19     8    40 1   
    20     9    10 1   
    21    10    11 1   
    22    11    41 1   
    23    11    42 1   
    24    12    13 1   
    25    12    14 2   
    26    13    15 2   
    27    14    23 1   
    28    16    43 1   
    29    16    44 1   
    30    16    45 1   
    31    17    46 1   
    32    17    47 1   
    33    17    48 1   
    34    18    19 1   
    35    18    55 1   
    36    19    20 1   
    37    19    21 1   
    38    19    22 1   
    39    23    24 1   
    40    24    25 1   
    41    24    49 1   
    42    24    50 1   
    43    25    26 1   
    44    25    30 2   
    45    26    27 1   
    46    26    31 1   
    47    27    28 2   
    48    27    51 1   
    49    28    29 1   
    50    28    33 1   
    51    29    30 1   
    52    29    32 2   
    53    30    52 1   
    54    31    53 1   
    55    33    54 1   
    56    39    55 1   
@<TRIPOS>SUBSTRUCTURE
     1 2U3         1 TEMP              0 ****  ****    0 ROOT
