@<TRIPOS>MOLECULE
2U4
   67    69     1     0     0
SMALL
abcg2


@<TRIPOS>ATOM
      1 C41          5.2100     2.3780     0.5140 ca         1 2U4      -0.088500
      2 C42          3.2890     2.5140    -1.5610 ca         1 2U4      -0.088500
      3 C7          -3.6200    -1.1490    -2.8240 cc         1 2U4      -0.277000
      4 C40          4.4540     1.2830     0.1510 ca         1 2U4      -0.122600
      5 C39          3.5140     1.3470    -0.8580 ca         1 2U4      -0.122600
      6 C44          4.9960     3.5670    -0.1750 ca         1 2U4       0.057100
      7 C43          4.0380     3.6300    -1.2100 ca         1 2U4       0.057100
      8 C8          -3.0030    -0.8080    -1.6670 cd         1 2U4       0.338700
      9 C10         -1.4090    -2.1110    -2.4500 cc         1 2U4       0.780300
     10 C35          4.4690    -0.1020     0.6750 c          1 2U4       0.589600
     11 C36          2.8940     0.0120    -0.9890 c          1 2U4       0.589600
     12 C25          0.1950     2.3060    -0.1010 c          1 2U4       0.564900
     13 C12         -3.6030     0.0650    -0.6460 cf         1 2U4       0.245300
     14 C30          2.8050    -2.4890     3.3460 c          1 2U4       0.637700
     15 C4           3.2660    -2.9250    -1.2510 c          1 2U4       0.728000
     16 C17         -7.1550     1.3150     1.9760 c          1 2U4       0.731000
     17 C18         -6.8810    -1.0780     1.2820 c3         1 2U4      -0.083100
     18 C19         -7.5620     0.6340    -0.4260 c3         1 2U4      -0.083100
     19 C2           1.9020    -2.3860     0.8980 c3         1 2U4      -0.129700
     20 C28          0.1840     1.1340     2.1120 c3         1 2U4       0.180600
     21 C24         -0.6630     1.7220     1.0020 c3         1 2U4      -0.014300
     22 C3           3.2030    -2.1950     0.1190 c3         1 2U4      -0.024300
     23 C16         -6.7290     0.3680     0.8220 c3         1 2U4       0.037000
     24 N9          -1.7570    -1.3440    -1.4590 nd         1 2U4      -0.743000
     25 N14         -4.8290    -0.1450    -0.3720 n2         1 2U4      -0.296700
     26 N26          1.5370    -0.6280     2.5890 n2         1 2U4      -0.353700
     27 N34          3.5160    -0.7940    -0.0470 n          1 2U4      -0.320400
     28 N11         -0.2810    -2.8340    -2.5160 nv         1 2U4      -1.031900
     29 N23         -1.6220     0.7760     0.5050 ns         1 2U4      -0.459900
     30 O31          2.9800    -1.8940     4.4200 o          1 2U4      -0.713000
     31 O20         -8.3720     1.2880     2.2460 o          1 2U4      -0.718000
     32 O37          5.1700    -0.5620     1.5440 o          1 2U4      -0.483000
     33 O38          2.0250    -0.3430    -1.7440 o          1 2U4      -0.483000
     34 O22         -3.1680     2.3330    -0.0600 o          1 2U4      -0.601100
     35 O32          3.1920    -3.6320     3.0380 o          1 2U4      -0.713000
     36 O21         -6.2760     1.9880     2.5350 o          1 2U4      -0.718000
     37 O45          5.7180     4.6460     0.1600 oh         1 2U4      -0.564600
     38 O46          3.9200     4.8290    -1.8080 oh         1 2U4      -0.564600
     39 O27          0.8620     0.0170     1.5800 os         1 2U4      -0.352000
     40 O15         -5.3460     0.6730     0.5560 os         1 2U4      -0.234000
     41 S6          -2.6020    -2.2140    -3.7240 ss         1 2U4      -0.253400
     42 H1           5.9490     2.3330     1.3040 ha         1 2U4       0.140500
     43 H2           2.5510     2.5680    -2.3510 ha         1 2U4       0.140500
     44 H3          -4.5790    -0.8290    -3.1960 h4         1 2U4       0.151000
     45 H4           1.0460     2.9120     0.2600 h4         1 2U4      -0.033800
     46 H5          -6.6150    -1.7810     0.4930 hc         1 2U4       0.024033
     47 H6          -6.2540    -1.2890     2.1520 hc         1 2U4       0.024033
     48 H7          -7.9170    -1.2620     1.5630 hc         1 2U4       0.024033
     49 H8          -8.6120     0.4330    -0.2240 hc         1 2U4       0.024033
     50 H9          -7.4750     1.6730    -0.7510 hc         1 2U4       0.024033
     51 H10         -7.2500    -0.0070    -1.2520 hc         1 2U4       0.024033
     52 H11          1.7410    -3.4540     1.0220 hc         1 2U4       0.069200
     53 H12          1.0570    -1.9840     0.3390 hc         1 2U4       0.069200
     54 H13          0.8880     1.8890     2.4790 h1         1 2U4       0.034200
     55 H14         -0.4610     0.8440     2.9460 h1         1 2U4       0.034200
     56 H15         -1.1910     2.5750     1.4440 h1         1 2U4       0.083700
     57 H16          4.0110    -2.6180     0.7230 h1         1 2U4       0.093700
     58 H17          0.4870    -2.6260    -1.8940 hn         1 2U4       0.518500
     59 H18         -0.0150    -3.2660    -3.3840 hn         1 2U4       0.518500
     60 H19         -1.2860    -0.1460     0.2450 hn         1 2U4       0.367500
     61 H23          5.4890     5.4000    -0.3970 ho         1 2U4       0.469500
     62 H24          3.2650     4.8090    -2.5150 ho         1 2U4       0.469500
     63 O33          2.4150    -3.8110    -1.4510 o          1 2U4      -0.739000
     64 C1           2.0170    -1.7560     2.2500 ce         1 2U4       0.303300
     65 C13         -2.7800     1.1800    -0.0450 c          1 2U4       0.522800
     66 O5           4.2000    -2.5870    -1.9950 o          1 2U4      -0.739000
     67 O29         -0.0310     2.1710    -1.2720 o          1 2U4      -0.517100
@<TRIPOS>BOND
     1     1     4 ar  
     2     1     6 ar  
     3     1    42 1   
     4     2     5 ar  
     5     2     7 ar  
     6     2    43 1   
     7     3     8 2   
     8     3    41 1   
     9     3    44 1   
    10     4     5 ar  
    11     4    10 1   
    12     5    11 1   
    13     6     7 ar  
    14     6    37 1   
    15     7    38 1   
    16     8    13 1   
    17     8    24 1   
    18     9    24 2   
    19     9    28 1   
    20     9    41 1   
    21    10    27 1   
    22    10    32 2   
    23    11    27 1   
    24    11    33 2   
    25    12    21 1   
    26    12    45 1   
    27    12    67 2   
    28    13    25 2   
    29    13    65 1   
    30    14    30 1   
    31    14    35 1   
    32    14    64 1   
    33    15    22 1   
    34    15    63 1   
    35    15    66 1   
    36    16    23 1   
    37    16    31 1   
    38    16    36 1   
    39    17    23 1   
    40    17    46 1   
    41    17    47 1   
    42    17    48 1   
    43    18    23 1   
    44    18    49 1   
    45    18    50 1   
    46    18    51 1   
    47    19    22 1   
    48    19    52 1   
    49    19    53 1   
    50    19    64 1   
    51    20    21 1   
    52    20    39 1   
    53    20    54 1   
    54    20    55 1   
    55    21    29 1   
    56    21    56 1   
    57    22    27 1   
    58    22    57 1   
    59    23    40 1   
    60    25    40 1   
    61    26    39 1   
    62    26    64 2   
    63    28    58 1   
    64    28    59 1   
    65    29    60 1   
    66    29    65 1   
    67    34    65 2   
    68    37    61 1   
    69    38    62 1   
@<TRIPOS>SUBSTRUCTURE
     1 2U4         1 TEMP              0 ****  ****    0 ROOT
