@<TRIPOS>MOLECULE
2U4
   67    69     1     0     0
SMALL
No Charge or Current Charge


@<TRIPOS>ATOM
      1 C41          5.2880     2.3000    -0.1610 ca         1 2U4      -0.088500
      2 C42          3.6760     1.5410    -2.3940 ca         1 2U4      -0.088500
      3 C7          -3.8110    -0.9410    -2.3880 cc         1 2U4      -0.277000
      4 C40          4.4540     1.1740    -0.1140 ca         1 2U4      -0.122600
      5 C39          3.6650     0.8080    -1.1970 ca         1 2U4      -0.122600
      6 C44          5.3060     3.0570    -1.3500 ca         1 2U4       0.057100
      7 C43          4.5060     2.6820    -2.4630 ca         1 2U4       0.057100
      8 C8          -3.0220    -0.5090    -1.3360 cd         1 2U4       0.338700
      9 C10         -1.5320    -1.6300    -2.5140 cc         1 2U4       0.780300
     10 C35          4.2370     0.1860     0.9810 c          1 2U4       0.589600
     11 C36          2.8970    -0.4180    -0.8290 c          1 2U4       0.589600
     12 C25          0.7220     2.7440    -0.8730 c          1 2U4       0.564900
     13 C12         -3.5120     0.3390    -0.2170 cf         1 2U4       0.245300
     14 C30          2.2760    -0.8910     4.4480 c          1 2U4       0.637700
     15 C4           2.8010    -3.2250     0.3750 c          1 2U4       0.728000
     16 C17         -7.2270    -2.5550     0.7090 c          1 2U4       0.731000
     17 C18         -7.5530    -0.2070    -0.2600 c3         1 2U4      -0.083100
     18 C19         -6.7470    -0.5110     2.1730 c3         1 2U4      -0.083100
     19 C2           1.5350    -1.6370     2.0320 c3         1 2U4      -0.129700
     20 C28          0.2230     2.3560     1.5880 c3         1 2U4       0.180600
     21 C24         -0.3840     2.6300     0.1940 c3         1 2U4      -0.014300
     22 C3           2.8420    -1.9210     1.2370 c3         1 2U4      -0.024300
     23 C16         -6.6960    -1.0680     0.7170 c3         1 2U4       0.037000
     24 N9          -1.6830    -0.9020    -1.4450 nd         1 2U4      -0.743000
     25 N14         -4.7340     0.2660     0.2430 n2         1 2U4      -0.296700
     26 N26          1.2670     0.7170     2.8880 n2         1 2U4      -0.353700
     27 N34          3.2970    -0.7180     0.4790 n          1 2U4      -0.320400
     28 N11         -0.3260    -2.1010    -2.7870 nv         1 2U4      -1.031900
     29 N23         -1.3920     1.6140    -0.2070 ns         1 2U4      -0.459900
     30 O31          2.3640    -0.0380     5.3290 o          1 2U4      -0.713000
     31 O20         -8.3850    -2.7670     1.0540 o          1 2U4      -0.718000
     32 O37          4.7770     0.1600     2.0780 o          1 2U4      -0.483000
     33 O38          2.0790    -1.0140    -1.5160 o          1 2U4      -0.483000
     34 O22         -3.0560     2.2740     1.1740 o          1 2U4      -0.601100
     35 O32          2.6500    -2.0430     4.6460 o          1 2U4      -0.713000
     36 O21         -6.4780    -3.4610     0.3600 o          1 2U4      -0.718000
     37 O45          6.1000     4.1620    -1.4440 oh         1 2U4      -0.564600
     38 O46          4.5470     3.4370    -3.6070 oh         1 2U4      -0.564600
     39 O27          0.8070     1.0380     1.5900 os         1 2U4      -0.352000
     40 O15         -5.3060    -1.0350     0.2570 os         1 2U4      -0.234000
     41 S6          -2.9040    -1.8860    -3.5360 ss         1 2U4      -0.253400
     42 H1           5.9040     2.5800     0.6920 ha         1 2U4       0.140500
     43 H2           3.0550     1.2370    -3.2330 ha         1 2U4       0.140500
     44 H3          -4.8660    -0.7600    -2.5490 h4         1 2U4       0.151000
     45 H4           1.6140     3.3410    -0.5790 h4         1 2U4      -0.033800
     46 H5          -7.2710     0.8520    -0.2300 hc         1 2U4       0.024033
     47 H6          -7.4410    -0.5670    -1.2900 hc         1 2U4       0.024033
     48 H7          -8.6160    -0.2660     0.0030 hc         1 2U4       0.024033
     49 H8          -7.7590    -0.5960     2.5840 hc         1 2U4       0.024033
     50 H9          -6.0700    -1.0760     2.8250 hc         1 2U4       0.024033
     51 H10         -6.4680     0.5490     2.2170 hc         1 2U4       0.024033
     52 H11          1.2390    -2.5590     2.5450 hc         1 2U4       0.069200
     53 H12          0.7170    -1.4320     1.3320 hc         1 2U4       0.069200
     54 H13          0.9790     3.1180     1.8210 h1         1 2U4       0.034200
     55 H14         -0.5710     2.4250     2.3440 h1         1 2U4       0.034200
     56 H15         -0.8730     3.6110     0.2300 h1         1 2U4       0.083700
     57 H16          3.6150    -2.1420     1.9830 h1         1 2U4       0.093700
     58 H17          0.4200    -1.6750    -2.2460 hn         1 2U4       0.518500
     59 H18         -0.1240    -2.2840    -3.7590 hn         1 2U4       0.518500
     60 H19         -1.1070     0.8850    -0.8620 hn         1 2U4       0.367500
     61 H23          5.9560     4.5230    -2.3490 ho         1 2U4       0.469500
     62 H24          3.9350     3.0480    -4.2700 ho         1 2U4       0.469500
     63 O33          1.7580    -3.8560     0.2750 o          1 2U4      -0.739000
     64 C1           1.6810    -0.5150     3.0730 ce         1 2U4       0.303300
     65 C13         -2.6620     1.4790     0.3220 c          1 2U4       0.522800
     66 O5           3.8500    -3.5950    -0.1340 o          1 2U4      -0.739000
     67 O29          0.6520     2.2270    -1.9840 o          1 2U4      -0.517100
@<TRIPOS>BOND
     1     1     4 ar  
     2     1     6 ar  
     3     1    42 1   
     4     2     5 ar  
     5     2     7 ar  
     6     2    43 1   
     7     3     8 2   
     8     3    41 1   
     9     3    44 1   
    10     4     5 ar  
    11     4    10 1   
    12     5    11 1   
    13     6     7 ar  
    14     6    37 1   
    15     7    38 1   
    16     8    13 1   
    17     8    24 1   
    18     9    24 2   
    19     9    28 1   
    20     9    41 1   
    21    10    27 1   
    22    10    32 2   
    23    11    27 1   
    24    11    33 2   
    25    12    21 1   
    26    12    45 1   
    27    12    67 2   
    28    13    25 2   
    29    13    65 1   
    30    14    30 1   
    31    14    35 1   
    32    14    64 1   
    33    15    22 1   
    34    15    63 1   
    35    15    66 1   
    36    16    23 1   
    37    16    31 1   
    38    16    36 1   
    39    17    23 1   
    40    17    46 1   
    41    17    47 1   
    42    17    48 1   
    43    18    23 1   
    44    18    49 1   
    45    18    50 1   
    46    18    51 1   
    47    19    22 1   
    48    19    52 1   
    49    19    53 1   
    50    19    64 1   
    51    20    21 1   
    52    20    39 1   
    53    20    54 1   
    54    20    55 1   
    55    21    29 1   
    56    21    56 1   
    57    22    27 1   
    58    22    57 1   
    59    23    40 1   
    60    25    40 1   
    61    26    39 1   
    62    26    64 2   
    63    28    58 1   
    64    28    59 1   
    65    29    60 1   
    66    29    65 1   
    67    34    65 2   
    68    37    61 1   
    69    38    62 1   
@<TRIPOS>SUBSTRUCTURE
     1 2U4         1 TEMP              0 ****  ****    0 ROOT
