@<TRIPOS>MOLECULE
2U5
   81    85     1     0     0
SMALL
No Charge or Current Charge


@<TRIPOS>ATOM
      1 C12          3.7860     1.6040    -1.5090 ca         1 2U5      -0.094000
      2 C11          5.0900     1.4280    -2.0010 ca         1 2U5       0.119000
      3 Cl1          6.3500     2.5780    -1.5730 cl         1 2U5      -0.216000
      4 C10          5.3910     0.3360    -2.8290 ca         1 2U5      -0.109000
      5 C9           4.3860    -0.5860    -3.1640 ca         1 2U5      -0.106000
      6 C8           3.0800    -0.4130    -2.6720 ca         1 2U5      -0.100000
      7 C7           2.7680     0.6870    -1.8430 ca         1 2U5      -0.063300
      8 C2           1.3510     0.8760    -1.2770 c6         1 2U5      -0.020400
      9 C3           0.2820     0.9370    -2.3850 c6         1 2U5      -0.073400
     10 C4          -1.1450     1.1870    -1.8170 c6         1 2U5      -0.103000
     11 C16         -1.2590     2.6440    -1.2140 c3         1 2U5      -0.104700
     12 C26         -2.6370     3.0720    -0.7070 ca         1 2U5       0.307300
     13 C27         -3.0400     2.7870     0.6120 ca         1 2U5      -0.175000
     14 C28         -4.2980     3.2180     1.0580 ca         1 2U5      -0.059000
     15 C29         -5.1180     3.9420     0.1660 ca         1 2U5      -0.169600
     16 C31         -6.4800     4.4420     0.5640 c          1 2U5       0.717600
     17 O3          -7.1420     5.0560    -0.2600 o          1 2U5      -0.718000
     18 O2          -6.8730     4.2170     1.6990 o          1 2U5      -0.718000
     19 C30         -4.6260     4.2000    -1.1260 ca         1 2U5       0.345900
     20 N2          -3.4110     3.7830    -1.5590 nb         1 2U5      -0.707000
     21 C34         -2.1740     1.0510    -2.9900 c3         1 2U5      -0.072100
     22 C5          -1.4840     0.1580    -0.6940 c          1 2U5       0.582000
     23 O1          -2.6560    -0.1000    -0.4500 o          1 2U5      -0.536000
     24 N1          -0.4330    -0.4840     0.0200 n          1 2U5      -0.423800
     25 C13         -0.7570    -1.4930     1.0700 c3         1 2U5       0.180700
     26 C14         -1.5390    -0.8800     2.2450 cx         1 2U5      -0.122700
     27 C32         -1.9630    -1.7020     3.4430 cx         1 2U5      -0.120900
     28 C33         -3.0090    -1.1400     2.5060 cx         1 2U5      -0.120900
     29 C15         -1.3500    -2.8030     0.4920 c3         1 2U5      -0.291400
     30 S1          -0.2590    -3.6500    -0.6670 s6         1 2U5       1.024000
     31 O4          -0.2580    -2.8880    -1.9230 o          1 2U5      -0.528500
     32 O5           1.0180    -3.8870     0.0190 o          1 2U5      -0.528500
     33 C22         -1.0430    -5.2960    -1.0060 c3         1 2U5      -0.214000
     34 C24         -1.1100    -6.1500     0.2950 c3         1 2U5      -0.084100
     35 C25         -2.4790    -5.0990    -1.5730 c3         1 2U5      -0.084100
     36 C23         -0.1760    -6.0460    -2.0580 c3         1 2U5      -0.084100
     37 C1           1.0220    -0.2280    -0.2370 c6         1 2U5       0.175000
     38 C6           1.8090     0.0340     1.0570 ca         1 2U5      -0.101300
     39 C17          1.4560     1.1020     1.9080 ca         1 2U5      -0.084500
     40 C18          2.1800     1.3340     3.0900 ca         1 2U5      -0.109000
     41 C19          3.2610     0.5040     3.4250 ca         1 2U5       0.122000
     42 Cl2          4.1670     0.7960     4.9040 cl         1 2U5      -0.217000
     43 C20          3.6200    -0.5600     2.5820 ca         1 2U5      -0.109000
     44 C21          2.8960    -0.7950     1.4000 ca         1 2U5      -0.084500
     45 H1           3.5740     2.4510    -0.8620 ha         1 2U5       0.131000
     46 H2           6.4020     0.2030    -3.2080 ha         1 2U5       0.123000
     47 H3           4.6180    -1.4360    -3.8020 ha         1 2U5       0.114000
     48 H4           2.3160    -1.1430    -2.9310 ha         1 2U5       0.132000
     49 H5           1.3430     1.8420    -0.7600 hc         1 2U5       0.067700
     50 H6           0.5440     1.7200    -3.1100 hc         1 2U5       0.060200
     51 H7           0.2840    -0.0080    -2.9450 hc         1 2U5       0.060200
     52 H8          -0.5680     2.7560    -0.3730 hc         1 2U5       0.042200
     53 H9          -0.9120     3.3700    -1.9600 hc         1 2U5       0.042200
     54 H10         -2.3860     2.2330     1.2790 ha         1 2U5       0.088000
     55 H11         -4.6240     2.9960     2.0720 ha         1 2U5       0.128000
     56 H13         -5.2130     4.7600    -1.8530 h4         1 2U5       0.031100
     57 H14         -2.1260     0.0530    -3.4430 hc         1 2U5       0.048033
     58 H15         -3.2090     1.2010    -2.6610 hc         1 2U5       0.048033
     59 H16         -1.9740     1.7820    -3.7830 hc         1 2U5       0.048033
     60 H17          0.1920    -1.8050     1.5240 h1         1 2U5       0.064700
     61 H18         -1.1800     0.1190     2.4790 hc         1 2U5       0.086700
     62 H19         -1.7920    -2.7750     3.4270 hc         1 2U5       0.072700
     63 H20         -1.8680    -1.2460     4.4250 hc         1 2U5       0.072700
     64 H21         -3.6100    -0.3040     2.8570 hc         1 2U5       0.072700
     65 H22         -3.5420    -1.8370     1.8650 hc         1 2U5       0.072700
     66 H23         -1.5370    -3.5140     1.2990 h1         1 2U5       0.113200
     67 H24         -2.2830    -2.6060    -0.0430 h1         1 2U5       0.113200
     68 H25         -1.7650    -5.6960     1.0470 hc         1 2U5       0.052700
     69 H26         -1.5080    -7.1500     0.0810 hc         1 2U5       0.052700
     70 H27         -0.1160    -6.2790     0.7400 hc         1 2U5       0.052700
     71 H28         -2.4680    -4.4810    -2.4790 hc         1 2U5       0.052700
     72 H29         -2.9280    -6.0650    -1.8360 hc         1 2U5       0.052700
     73 H30         -3.1390    -4.6190    -0.8410 hc         1 2U5       0.052700
     74 H31          0.8460    -6.2030    -1.6910 hc         1 2U5       0.052700
     75 H32         -0.6030    -7.0300    -2.2890 hc         1 2U5       0.052700
     76 H33         -0.1150    -5.4820    -2.9970 hc         1 2U5       0.052700
     77 H34          1.4080    -1.1650    -0.6600 h1         1 2U5       0.055700
     78 H35          0.6180     1.7490     1.6570 ha         1 2U5       0.130500
     79 H36          1.9050     2.1570     3.7450 ha         1 2U5       0.128000
     80 H37          4.4570    -1.2010     2.8440 ha         1 2U5       0.128000
     81 H38          3.1810    -1.6220     0.7530 ha         1 2U5       0.130500
@<TRIPOS>BOND
     1     1     2 ar  
     2     1     7 ar  
     3     1    45 1   
     4     2     3 1   
     5     2     4 ar  
     6     4     5 ar  
     7     4    46 1   
     8     5     6 ar  
     9     5    47 1   
    10     6     7 ar  
    11     6    48 1   
    12     7     8 1   
    13     8     9 1   
    14     8    37 1   
    15     8    49 1   
    16     9    10 1   
    17     9    50 1   
    18     9    51 1   
    19    10    11 1   
    20    10    21 1   
    21    10    22 1   
    22    11    12 1   
    23    11    52 1   
    24    11    53 1   
    25    12    13 ar  
    26    12    20 ar  
    27    13    14 ar  
    28    13    54 1   
    29    14    15 ar  
    30    14    55 1   
    31    15    16 1   
    32    15    19 ar  
    33    16    17 1   
    34    16    18 1   
    35    19    20 ar  
    36    19    56 1   
    37    21    57 1   
    38    21    58 1   
    39    21    59 1   
    40    22    23 2   
    41    22    24 1   
    42    24    25 1   
    43    24    37 1   
    44    25    26 1   
    45    25    29 1   
    46    25    60 1   
    47    26    27 1   
    48    26    28 1   
    49    26    61 1   
    50    27    28 1   
    51    27    62 1   
    52    27    63 1   
    53    28    64 1   
    54    28    65 1   
    55    29    30 1   
    56    29    66 1   
    57    29    67 1   
    58    30    31 2   
    59    30    32 2   
    60    30    33 1   
    61    33    34 1   
    62    33    35 1   
    63    33    36 1   
    64    34    68 1   
    65    34    69 1   
    66    34    70 1   
    67    35    71 1   
    68    35    72 1   
    69    35    73 1   
    70    36    74 1   
    71    36    75 1   
    72    36    76 1   
    73    37    38 1   
    74    37    77 1   
    75    38    39 ar  
    76    38    44 ar  
    77    39    40 ar  
    78    39    78 1   
    79    40    41 ar  
    80    40    79 1   
    81    41    42 1   
    82    41    43 ar  
    83    43    44 ar  
    84    43    80 1   
    85    44    81 1   
@<TRIPOS>SUBSTRUCTURE
     1 2U5         1 TEMP              0 ****  ****    0 ROOT
