@<TRIPOS>MOLECULE
2U5
   81    85     1     0     0
SMALL
bcc


@<TRIPOS>ATOM
      1 C12          3.7400     1.5950    -1.5080 ca         1 2U5      -0.112000
      2 C11          5.0390     1.4040    -1.9540 ca         1 2U5       0.027400
      3 CL1          6.2180     2.6440    -1.6670 cl         1 2U5      -0.124400
      4 C10          5.4140     0.2490    -2.6170 ca         1 2U5      -0.127000
      5 C9           4.4550    -0.7330    -2.8290 ca         1 2U5      -0.124000
      6 C8           3.1530    -0.5570    -2.3900 ca         1 2U5      -0.118000
      7 C7           2.7830     0.6110    -1.7250 ca         1 2U5      -0.063300
      8 C2           1.3700     0.8190    -1.2370 c6         1 2U5      -0.020400
      9 C3           0.3550     0.8060    -2.3630 c6         1 2U5      -0.073400
     10 C4          -1.0650     1.0400    -1.8510 c6         1 2U5      -0.103000
     11 C16         -1.2040     2.4950    -1.3270 c3         1 2U5      -0.104700
     12 C26         -2.5440     2.8520    -0.7540 ca         1 2U5       0.372600
     13 C27         -2.7910     2.7200     0.6110 ca         1 2U5      -0.258300
     14 C28         -4.0400     3.0390     1.1070 ca         1 2U5      -0.077000
     15 C29         -5.0280     3.4930     0.2400 ca         1 2U5      -0.234900
     16 C31         -6.4230     3.8490     0.7280 c          1 2U5       0.928200
     17 O3          -7.2270     4.2580    -0.1310 o          1 2U5      -0.823300
     18 O2          -6.6380     3.6960     1.9450 o          1 2U5      -0.823300
     19 C30         -4.6750     3.6070    -1.1000 ca         1 2U5       0.411200
     20 N2          -3.4770     3.3030    -1.5880 nb         1 2U5      -0.707000
     21 C34         -2.0320     0.7930    -3.0090 c3         1 2U5      -0.072100
     22 C5          -1.4010     0.0850    -0.7130 c          1 2U5       0.724500
     23 O1          -2.5640    -0.2070    -0.4940 o          1 2U5      -0.611500
     24 N1          -0.4000    -0.3960     0.0710 n          1 2U5      -0.490800
     25 C13         -0.7270    -1.4110     1.0830 c3         1 2U5       0.180700
     26 C14         -1.4630    -0.8100     2.2680 cx         1 2U5      -0.122700
     27 C32         -1.9410    -1.6480     3.4160 cx         1 2U5      -0.120900
     28 C33         -2.9240    -0.9480     2.5260 cx         1 2U5      -0.120900
     29 C15         -1.4170    -2.6540     0.5150 c3         1 2U5      -0.180600
     30 S1          -0.4230    -3.4450    -0.7610 s6         1 2U5       0.944000
     31 O4          -0.4600    -2.6220    -1.9760 o          1 2U5      -0.599300
     32 O5           0.8960    -3.7370    -0.1850 o          1 2U5      -0.599300
     33 C22         -1.2550    -5.0320    -1.1370 c3         1 2U5      -0.103200
     34 C24         -1.2490    -5.9190     0.1010 c3         1 2U5      -0.084100
     35 C25         -2.6750    -4.7390    -1.6070 c3         1 2U5      -0.084100
     36 C23         -0.4260    -5.6670    -2.2550 c3         1 2U5      -0.084100
     37 C1           1.0360    -0.2430    -0.1810 c6         1 2U5       0.175000
     38 C6           1.7900     0.0760     1.0900 ca         1 2U5      -0.101300
     39 C17          1.4560     1.1840     1.8630 ca         1 2U5      -0.102500
     40 C18          2.1760     1.5070     3.0010 ca         1 2U5      -0.127000
     41 C19          3.2520     0.7100     3.3650 ca         1 2U5       0.030400
     42 CL2          4.1610     1.1070     4.7870 cl         1 2U5      -0.125400
     43 C20          3.6090    -0.3960     2.6120 ca         1 2U5      -0.127000
     44 C21          2.8700    -0.7050     1.4780 ca         1 2U5      -0.102500
     45 H1           3.4720     2.5050    -0.9860 ha         1 2U5       0.149000
     46 H2           6.4310     0.1120    -2.9580 ha         1 2U5       0.141000
     47 H3           4.7340    -1.6430    -3.3430 ha         1 2U5       0.132000
     48 H4           2.4260    -1.3420    -2.5590 ha         1 2U5       0.150000
     49 H5           1.3410     1.8020    -0.7600 hc         1 2U5       0.067700
     50 H6           0.6050     1.5800    -3.0940 hc         1 2U5       0.060200
     51 H7           0.3850    -0.1500    -2.8920 hc         1 2U5       0.060200
     52 H8          -0.4450     2.6850    -0.5660 hc         1 2U5       0.042200
     53 H9          -0.9830     3.1620    -2.1650 hc         1 2U5       0.042200
     54 H10         -2.0090     2.3680     1.2720 ha         1 2U5       0.106000
     55 H11         -4.2510     2.9400     2.1640 ha         1 2U5       0.146000
     56 H13         -5.4040     3.9690    -1.8170 h4         1 2U5       0.031100
     57 H14         -1.9600    -0.2400    -3.3500 hc         1 2U5       0.048033
     58 H15         -3.0660     0.9970    -2.7440 hc         1 2U5       0.048033
     59 H16         -1.7670     1.4410    -3.8460 hc         1 2U5       0.048033
     60 H17          0.2340    -1.7470     1.4770 h1         1 2U5       0.064700
     61 H18         -1.0230     0.1390     2.5550 hc         1 2U5       0.086700
     62 H19         -1.8680    -2.7270     3.3450 hc         1 2U5       0.072700
     63 H20         -1.7750    -1.2680     4.4160 hc         1 2U5       0.072700
     64 H21         -3.4490    -0.0810     2.9070 hc         1 2U5       0.072700
     65 H22         -3.5130    -1.5540     1.8510 hc         1 2U5       0.072700
     66 H23         -1.5320    -3.3920     1.3100 h1         1 2U5       0.113200
     67 H24         -2.3940    -2.4370     0.0920 h1         1 2U5       0.113200
     68 H25         -1.8400    -5.5050     0.9170 hc         1 2U5       0.052700
     69 H26         -1.6960    -6.8780    -0.1640 hc         1 2U5       0.052700
     70 H27         -0.2400    -6.1130     0.4610 hc         1 2U5       0.052700
     71 H28         -2.6930    -4.0570    -2.4560 hc         1 2U5       0.052700
     72 H29         -3.1370    -5.6750    -1.9230 hc         1 2U5       0.052700
     73 H30         -3.2960    -4.3250    -0.8130 hc         1 2U5       0.052700
     74 H31          0.5920    -5.8810    -1.9330 hc         1 2U5       0.052700
     75 H32         -0.8950    -6.6130    -2.5260 hc         1 2U5       0.052700
     76 H33         -0.3910    -5.0450    -3.1480 hc         1 2U5       0.052700
     77 H34          1.4000    -1.2050    -0.5530 h1         1 2U5       0.055700
     78 H35          0.6220     1.8170     1.5810 ha         1 2U5       0.148500
     79 H36          1.9030     2.3700     3.5920 ha         1 2U5       0.146000
     80 H37          4.4480    -1.0130     2.9030 ha         1 2U5       0.146000
     81 H38          3.1470    -1.5740     0.8930 ha         1 2U5       0.148500
@<TRIPOS>BOND
     1     1     2 ar  
     2     1     7 ar  
     3     1    45 1   
     4     2     3 1   
     5     2     4 ar  
     6     4     5 ar  
     7     4    46 1   
     8     5     6 ar  
     9     5    47 1   
    10     6     7 ar  
    11     6    48 1   
    12     7     8 1   
    13     8     9 1   
    14     8    37 1   
    15     8    49 1   
    16     9    10 1   
    17     9    50 1   
    18     9    51 1   
    19    10    11 1   
    20    10    21 1   
    21    10    22 1   
    22    11    12 1   
    23    11    52 1   
    24    11    53 1   
    25    12    13 ar  
    26    12    20 ar  
    27    13    14 ar  
    28    13    54 1   
    29    14    15 ar  
    30    14    55 1   
    31    15    16 1   
    32    15    19 ar  
    33    16    17 1   
    34    16    18 1   
    35    19    20 ar  
    36    19    56 1   
    37    21    57 1   
    38    21    58 1   
    39    21    59 1   
    40    22    23 2   
    41    22    24 1   
    42    24    25 1   
    43    24    37 1   
    44    25    26 1   
    45    25    29 1   
    46    25    60 1   
    47    26    27 1   
    48    26    28 1   
    49    26    61 1   
    50    27    28 1   
    51    27    62 1   
    52    27    63 1   
    53    28    64 1   
    54    28    65 1   
    55    29    30 1   
    56    29    66 1   
    57    29    67 1   
    58    30    31 2   
    59    30    32 2   
    60    30    33 1   
    61    33    34 1   
    62    33    35 1   
    63    33    36 1   
    64    34    68 1   
    65    34    69 1   
    66    34    70 1   
    67    35    71 1   
    68    35    72 1   
    69    35    73 1   
    70    36    74 1   
    71    36    75 1   
    72    36    76 1   
    73    37    38 1   
    74    37    77 1   
    75    38    39 ar  
    76    38    44 ar  
    77    39    40 ar  
    78    39    78 1   
    79    40    41 ar  
    80    40    79 1   
    81    41    42 1   
    82    41    43 ar  
    83    43    44 ar  
    84    43    80 1   
    85    44    81 1   
@<TRIPOS>SUBSTRUCTURE
     1 2U5         1 TEMP              0 ****  ****    0 ROOT
