@<TRIPOS>MOLECULE
2U7
   66    68     1     0     0
SMALL
abcg2


@<TRIPOS>ATOM
      1 C16          3.5820    -0.2230    -0.6380 ca         1 2U7      -0.088000
      2 C15          4.8940     0.1160    -0.3490 ca         1 2U7       0.114000
      3 CL2          5.7610     1.1420    -1.4450 cl         1 2U7      -0.225000
      4 C14          5.5270    -0.3510     0.7910 ca         1 2U7      -0.108000
      5 C13          4.8160    -1.1720     1.6560 ca         1 2U7      -0.114000
      6 C12          3.4990    -1.5140     1.3870 ca         1 2U7      -0.071000
      7 C6           2.8770    -1.0410     0.2360 ca         1 2U7      -0.059300
      8 C2           1.4350    -1.3650    -0.0510 c6         1 2U7       0.206600
      9 O1           1.1670    -2.6840     0.3120 os         1 2U7      -0.404000
     10 C3          -0.1050    -3.0770    -0.1500 c6         1 2U7       0.116300
     11 C22         -0.3160    -4.5190     0.2570 c3         1 2U7      -0.206400
     12 C23          0.6630    -5.4890    -0.4330 c          1 2U7       0.727000
     13 O4           0.9920    -6.4970     0.2210 o          1 2U7      -0.731500
     14 O3           1.0040    -5.2130    -1.6000 o          1 2U7      -0.731500
     15 C4          -1.2010    -2.1640     0.3840 c          1 2U7       0.532000
     16 O2          -2.3530    -2.5610     0.4220 o          1 2U7      -0.546000
     17 N1          -0.8470    -0.9210     0.8100 n          1 2U7      -0.417800
     18 C17         -1.8340    -0.1770     1.5990 c3         1 2U7       0.133700
     19 C19         -1.2800     0.2680     2.9570 c3         1 2U7      -0.080400
     20 C21         -0.8190    -0.8990     3.8180 c3         1 2U7      -0.093100
     21 C18         -2.4700     1.0160     0.8770 c3         1 2U7      -0.301400
     22 S1          -3.6110     0.5190    -0.4230 s6         1 2U7       1.054000
     23 O5          -2.8700    -0.1040    -1.5240 o          1 2U7      -0.501500
     24 O6          -4.6840    -0.2560     0.2060 o          1 2U7      -0.501500
     25 C20         -4.3460     2.0760    -1.0570 c3         1 2U7      -0.233000
     26 C25         -3.2540     2.9300    -1.6900 c3         1 2U7      -0.080433
     27 C26         -5.3600     1.6340    -2.1130 c3         1 2U7      -0.080433
     28 C24         -5.0450     2.8080     0.0810 c3         1 2U7      -0.080433
     29 C1           0.5220    -0.4120     0.7410 c6         1 2U7       0.135000
     30 C5           0.6280     0.9620     0.1230 ca         1 2U7      -0.090300
     31 C7           0.1710     1.2010    -1.1700 ca         1 2U7      -0.093000
     32 C8           0.3220     2.4450    -1.7570 ca         1 2U7      -0.113500
     33 C9           0.9360     3.4620    -1.0400 ca         1 2U7       0.114000
     34 CL1          1.1120     5.0250    -1.7650 cl         1 2U7      -0.220000
     35 C10          1.4090     3.2470     0.2430 ca         1 2U7      -0.113500
     36 C11          1.2520     1.9920     0.8140 ca         1 2U7      -0.093000
     37 H1           3.1090     0.1480    -1.5380 ha         1 2U7       0.130000
     38 H2           6.5530    -0.0830     1.0030 ha         1 2U7       0.118000
     39 H3           5.2990    -1.5460     2.5490 ha         1 2U7       0.113000
     40 H4           2.9630    -2.1500     2.0800 ha         1 2U7       0.139000
     41 H5           1.2500    -1.2290    -1.1270 h1         1 2U7       0.059700
     42 H6          -0.1370    -3.0150    -1.2480 h1         1 2U7       0.093700
     43 H7          -0.2550    -4.6150     1.3440 hc         1 2U7       0.046700
     44 H8          -1.3300    -4.8170    -0.0220 hc         1 2U7       0.046700
     45 H10         -2.6370    -0.8810     1.8140 h1         1 2U7       0.099700
     46 H11         -0.4850     1.0080     2.8410 hc         1 2U7       0.035200
     47 H12         -2.0890     0.7860     3.4740 hc         1 2U7       0.035200
     48 H13         -1.6300    -1.6110     3.9770 hc         1 2U7       0.040033
     49 H14          0.0140    -1.4490     3.3780 hc         1 2U7       0.040033
     50 H15         -0.4920    -0.5450     4.7960 hc         1 2U7       0.040033
     51 H16         -3.0720     1.5760     1.5930 h1         1 2U7       0.092200
     52 H17         -1.7420     1.6970     0.4450 h1         1 2U7       0.092200
     53 H18         -2.7540     2.4110    -2.5060 hc         1 2U7       0.048922
     54 H19         -3.7150     3.8300    -2.1000 hc         1 2U7       0.048922
     55 H20         -2.5000     3.2530    -0.9720 hc         1 2U7       0.048922
     56 H21         -6.1610     1.0320    -1.6860 hc         1 2U7       0.048922
     57 H22         -5.8100     2.5270    -2.5470 hc         1 2U7       0.048922
     58 H23         -4.8920     1.0730    -2.9210 hc         1 2U7       0.048922
     59 H24         -4.3470     3.1990     0.8210 hc         1 2U7       0.048922
     60 H25         -5.5820     3.6620    -0.3360 hc         1 2U7       0.048922
     61 H26         -5.7740     2.1750     0.5860 hc         1 2U7       0.048922
     62 H27          0.9240    -0.3520     1.7580 h1         1 2U7       0.056700
     63 H28         -0.3340     0.4200    -1.7230 ha         1 2U7       0.137500
     64 H29         -0.0430     2.6240    -2.7600 ha         1 2U7       0.126500
     65 H30          1.8920     4.0420     0.7950 ha         1 2U7       0.126500
     66 H31          1.6270     1.8190     1.8160 ha         1 2U7       0.137500
@<TRIPOS>BOND
     1     1     2 ar  
     2     1     7 ar  
     3     1    37 1   
     4     2     3 1   
     5     2     4 ar  
     6     4     5 ar  
     7     4    38 1   
     8     5     6 ar  
     9     5    39 1   
    10     6     7 ar  
    11     6    40 1   
    12     7     8 1   
    13     8     9 1   
    14     8    29 1   
    15     8    41 1   
    16     9    10 1   
    17    10    11 1   
    18    10    15 1   
    19    10    42 1   
    20    11    12 1   
    21    11    43 1   
    22    11    44 1   
    23    12    13 1   
    24    12    14 1   
    25    15    16 2   
    26    15    17 1   
    27    17    18 1   
    28    17    29 1   
    29    18    19 1   
    30    18    21 1   
    31    18    45 1   
    32    19    20 1   
    33    19    46 1   
    34    19    47 1   
    35    20    48 1   
    36    20    49 1   
    37    20    50 1   
    38    21    22 1   
    39    21    51 1   
    40    21    52 1   
    41    22    23 2   
    42    22    24 2   
    43    22    25 1   
    44    25    26 1   
    45    25    27 1   
    46    25    28 1   
    47    26    53 1   
    48    26    54 1   
    49    26    55 1   
    50    27    56 1   
    51    27    57 1   
    52    27    58 1   
    53    28    59 1   
    54    28    60 1   
    55    28    61 1   
    56    29    30 1   
    57    29    62 1   
    58    30    31 ar  
    59    30    36 ar  
    60    31    32 ar  
    61    31    63 1   
    62    32    33 ar  
    63    32    64 1   
    64    33    34 1   
    65    33    35 ar  
    66    35    36 ar  
    67    35    65 1   
    68    36    66 1   
@<TRIPOS>SUBSTRUCTURE
     1 2U7         1 TEMP              0 ****  ****    0 ROOT
