@<TRIPOS>MOLECULE
2U7
   66    68     1     0     0
SMALL
No Charge or Current Charge


@<TRIPOS>ATOM
      1 C16          3.8430    -0.3220    -0.3550 ca         1 2U7      -0.088000
      2 C15          5.1620    -0.0720     0.0580 ca         1 2U7       0.114000
      3 Cl2          6.2150     0.9270    -0.9340 cl         1 2U7      -0.225000
      4 C14          5.6400    -0.6130     1.2620 ca         1 2U7      -0.108000
      5 C13          4.7950    -1.4040     2.0590 ca         1 2U7      -0.114000
      6 C12          3.4730    -1.6550     1.6490 ca         1 2U7      -0.071000
      7 C6           2.9900    -1.1190     0.4360 ca         1 2U7      -0.059300
      8 C2           1.5430    -1.3610    -0.0070 c6         1 2U7       0.206600
      9 O1           1.1960    -2.7400     0.2210 os         1 2U7      -0.404000
     10 C3          -0.1380    -3.0270    -0.2370 c6         1 2U7       0.116300
     11 C22         -0.3400    -4.5720    -0.2100 c3         1 2U7      -0.206400
     12 C23          0.5350    -5.2540    -1.2640 c          1 2U7       0.727000
     13 O4           1.6220    -5.6970    -0.9250 o          1 2U7      -0.731500
     14 O3           0.1100    -5.3090    -2.4070 o          1 2U7      -0.731500
     15 C4          -1.1560    -2.2550     0.6520 c          1 2U7       0.532000
     16 O2          -2.1300    -2.8110     1.1500 o          1 2U7      -0.546000
     17 N1          -0.8500    -0.8930     0.9270 n          1 2U7      -0.417800
     18 C17         -1.8030    -0.0900     1.7670 c3         1 2U7       0.133700
     19 C19         -1.1950     0.4160     3.1020 c3         1 2U7      -0.080400
     20 C21         -0.6680    -0.7100     4.0200 c3         1 2U7      -0.093100
     21 C18         -2.4880     1.0600     0.9930 c3         1 2U7      -0.301400
     22 S1          -3.6580     0.4820    -0.2620 s6         1 2U7       1.054000
     23 O5          -2.9020    -0.2290    -1.3010 o          1 2U7      -0.501500
     24 O6          -4.7370    -0.2260     0.4410 o          1 2U7      -0.501500
     25 C20         -4.3830     2.0070    -1.0290 c3         1 2U7      -0.233000
     26 C25         -3.2700     2.8500    -1.7160 c3         1 2U7      -0.080433
     27 C26         -5.4240     1.5730    -2.1010 c3         1 2U7      -0.080433
     28 C24         -5.0960     2.8740     0.0500 c3         1 2U7      -0.080433
     29 C1           0.5520    -0.3690     0.6990 c6         1 2U7       0.135000
     30 C5           0.5840     0.9790    -0.0360 ca         1 2U7      -0.090300
     31 C7           0.1240     1.0810    -1.3660 ca         1 2U7      -0.093000
     32 C8           0.1710     2.3130    -2.0400 ca         1 2U7      -0.113500
     33 C9           0.6710     3.4500    -1.3890 ca         1 2U7       0.114000
     34 Cl1          0.7160     4.9930    -2.2300 cl         1 2U7      -0.220000
     35 C10          1.1370     3.3570    -0.0690 ca         1 2U7      -0.113500
     36 C11          1.0990     2.1240     0.6050 ca         1 2U7      -0.093000
     37 H1           3.4830     0.1110    -1.2850 ha         1 2U7       0.130000
     38 H2           6.6620    -0.4160     1.5780 ha         1 2U7       0.118000
     39 H3           5.1620    -1.8220     2.9940 ha         1 2U7       0.113000
     40 H4           2.8240    -2.2640     2.2740 ha         1 2U7       0.139000
     41 H5           1.4940    -1.1970    -1.0930 h1         1 2U7       0.059700
     42 H6          -0.2700    -2.6610    -1.2660 h1         1 2U7       0.093700
     43 H7          -0.0810    -4.9240     0.7950 hc         1 2U7       0.046700
     44 H8          -1.3910    -4.7390    -0.4730 hc         1 2U7       0.046700
     45 H10         -2.6250    -0.7450     2.0890 h1         1 2U7       0.099700
     46 H11         -0.3950     1.1380     2.9080 hc         1 2U7       0.035200
     47 H12         -1.9690     0.9640     3.6550 hc         1 2U7       0.035200
     48 H13         -1.4720    -1.4150     4.2660 hc         1 2U7       0.040033
     49 H14          0.1440    -1.2700     3.5430 hc         1 2U7       0.040033
     50 H15         -0.2850    -0.2890     4.9570 hc         1 2U7       0.040033
     51 H16         -3.0830     1.6590     1.6890 h1         1 2U7       0.092200
     52 H17         -1.7630     1.7110     0.5030 h1         1 2U7       0.092200
     53 H18         -2.7430     2.2640    -2.4790 hc         1 2U7       0.048922
     54 H19         -3.6980     3.7300    -2.2120 hc         1 2U7       0.048922
     55 H20         -2.5310     3.2120    -0.9910 hc         1 2U7       0.048922
     56 H21         -6.2330     0.9840    -1.6520 hc         1 2U7       0.048922
     57 H22         -5.8760     2.4470    -2.5850 hc         1 2U7       0.048922
     58 H23         -4.9560     0.9630    -2.8840 hc         1 2U7       0.048922
     59 H24         -4.3870     3.2610     0.7910 hc         1 2U7       0.048922
     60 H25         -5.5890     3.7390    -0.4110 hc         1 2U7       0.048922
     61 H26         -5.8650     2.2980     0.5810 hc         1 2U7       0.048922
     62 H27          0.9840    -0.2010     1.6930 h1         1 2U7       0.056700
     63 H28         -0.2760     0.2070    -1.8770 ha         1 2U7       0.137500
     64 H29         -0.1860     2.3870    -3.0640 ha         1 2U7       0.126500
     65 H30          1.5300     4.2390     0.4310 ha         1 2U7       0.126500
     66 H31          1.4720     2.0630     1.6260 ha         1 2U7       0.137500
@<TRIPOS>BOND
     1     1     2 ar  
     2     1     7 ar  
     3     1    37 1   
     4     2     3 1   
     5     2     4 ar  
     6     4     5 ar  
     7     4    38 1   
     8     5     6 ar  
     9     5    39 1   
    10     6     7 ar  
    11     6    40 1   
    12     7     8 1   
    13     8     9 1   
    14     8    29 1   
    15     8    41 1   
    16     9    10 1   
    17    10    11 1   
    18    10    15 1   
    19    10    42 1   
    20    11    12 1   
    21    11    43 1   
    22    11    44 1   
    23    12    13 1   
    24    12    14 1   
    25    15    16 2   
    26    15    17 1   
    27    17    18 1   
    28    17    29 1   
    29    18    19 1   
    30    18    21 1   
    31    18    45 1   
    32    19    20 1   
    33    19    46 1   
    34    19    47 1   
    35    20    48 1   
    36    20    49 1   
    37    20    50 1   
    38    21    22 1   
    39    21    51 1   
    40    21    52 1   
    41    22    23 2   
    42    22    24 2   
    43    22    25 1   
    44    25    26 1   
    45    25    27 1   
    46    25    28 1   
    47    26    53 1   
    48    26    54 1   
    49    26    55 1   
    50    27    56 1   
    51    27    57 1   
    52    27    58 1   
    53    28    59 1   
    54    28    60 1   
    55    28    61 1   
    56    29    30 1   
    57    29    62 1   
    58    30    31 ar  
    59    30    36 ar  
    60    31    32 ar  
    61    31    63 1   
    62    32    33 ar  
    63    32    64 1   
    64    33    34 1   
    65    33    35 ar  
    66    35    36 ar  
    67    35    65 1   
    68    36    66 1   
@<TRIPOS>SUBSTRUCTURE
     1 2U7         1 TEMP              0 ****  ****    0 ROOT
