@<TRIPOS>MOLECULE
2U8
   46    48     1     0     0
SMALL
No Charge or Current Charge


@<TRIPOS>ATOM
      1 C1          -3.3250    -0.1240    -0.2420 ca         1 2U8       0.024000
      2 N1           3.0590    -0.2220     0.3270 n          1 2U8      -0.414800
      3 O1          -0.1290     3.2920     0.5160 oh         1 2U8      -0.647000
      4 C2          -3.6500    -0.8810    -1.3820 ca         1 2U8      -0.090000
      5 O2           3.2100    -2.4160    -0.3920 o          1 2U8      -0.549000
      6 C3          -4.1730    -0.1490     0.8810 ca         1 2U8      -0.089000
      7 O3           4.7390    -1.5800     1.1020 os         1 2U8      -0.456100
      8 C4          -2.1300     0.6680    -0.2240 cg         1 2U8      -0.091000
      9 C5          -4.8200    -1.6600    -1.3980 ca         1 2U8      -0.109000
     10 C6          -5.6660    -1.6830    -0.2750 ca         1 2U8      -0.101000
     11 C7          -5.3470    -0.9260     0.8690 ca         1 2U8      -0.077300
     12 C8          -6.2600    -0.9540     2.0850 c3         1 2U8      -0.046800
     13 C9          -1.1110     1.3300    -0.2180 c1         1 2U8      -0.169100
     14 C10          0.1450     2.1100    -0.2280 c6         1 2U8       0.292100
     15 C11          0.5340     2.4970    -1.6860 c6         1 2U8      -0.102400
     16 C12          0.9680     1.2680    -2.5340 c6         1 2U8      -0.067400
     17 C13          2.1490     0.5190    -1.8720 c6         1 2U8      -0.094400
     18 C14          1.8210     0.1080    -0.4080 c5         1 2U8       0.132700
     19 C15          1.2840     1.2900     0.4590 c5         1 2U8      -0.063700
     20 C16          2.6040     2.0460     0.8040 c5         1 2U8      -0.083400
     21 C17          3.5290     0.8680     1.2130 c5         1 2U8       0.113000
     22 C19          5.4390    -2.8360     1.1610 c3         1 2U8       0.169900
     23 H1          -1.0400     3.5530     0.2640 ho         1 2U8       0.450000
     24 H2          -2.9990    -0.8670    -2.2540 ha         1 2U8       0.121000
     25 H3          -3.9180     0.4340     1.7630 ha         1 2U8       0.118000
     26 H4          -5.0710    -2.2460    -2.2800 ha         1 2U8       0.116000
     27 H5          -6.5680    -2.2900    -0.2950 ha         1 2U8       0.113000
     28 H6          -5.9550    -1.7430     2.7840 hc         1 2U8       0.043367
     29 H7          -6.2350    -0.0000     2.6260 hc         1 2U8       0.043367
     30 H8          -7.3020    -1.1430     1.8000 hc         1 2U8       0.043367
     31 H9          -0.3070     3.0030    -2.1810 hc         1 2U8       0.050700
     32 H10          1.3530     3.2290    -1.6700 hc         1 2U8       0.050700
     33 H11          0.1210     0.5810    -2.6710 hc         1 2U8       0.049200
     34 H12          1.2580     1.5980    -3.5410 hc         1 2U8       0.049200
     35 H13          2.3970    -0.3770    -2.4570 hc         1 2U8       0.054200
     36 H14          3.0430     1.1560    -1.9010 hc         1 2U8       0.054200
     37 H15          1.1060    -0.7270    -0.4170 h1         1 2U8       0.083700
     38 H16          0.8500     0.9010     1.3890 hc         1 2U8       0.075700
     39 H17          3.0120     2.5920    -0.0530 hc         1 2U8       0.059700
     40 H18          2.4780     2.7700     1.6170 hc         1 2U8       0.059700
     41 H19          3.3870     0.5940     2.2670 h1         1 2U8       0.050700
     42 H20          4.5890     1.1070     1.0540 h1         1 2U8       0.050700
     43 H21          4.7780    -3.6350     1.5230 h1         1 2U8       0.046033
     44 H22          5.8190    -3.1190     0.1710 h1         1 2U8       0.046033
     45 H23          6.2930    -2.7650     1.8460 h1         1 2U8       0.046033
     46 C18          3.6420    -1.4970     0.2890 c          1 2U8       0.644100
@<TRIPOS>BOND
     1     1     4 ar  
     2     1     6 ar  
     3     1     8 1   
     4     2    18 1   
     5     2    21 1   
     6     2    46 1   
     7     3    14 1   
     8     3    23 1   
     9     4     9 ar  
    10     4    24 1   
    11     5    46 2   
    12     6    11 ar  
    13     6    25 1   
    14     7    22 1   
    15     7    46 1   
    16     8    13 3   
    17     9    10 ar  
    18     9    26 1   
    19    10    11 ar  
    20    10    27 1   
    21    11    12 1   
    22    12    28 1   
    23    12    29 1   
    24    12    30 1   
    25    13    14 1   
    26    14    15 1   
    27    14    19 1   
    28    15    16 1   
    29    15    31 1   
    30    15    32 1   
    31    16    17 1   
    32    16    33 1   
    33    16    34 1   
    34    17    18 1   
    35    17    35 1   
    36    17    36 1   
    37    18    19 1   
    38    18    37 1   
    39    19    20 1   
    40    19    38 1   
    41    20    21 1   
    42    20    39 1   
    43    20    40 1   
    44    21    41 1   
    45    21    42 1   
    46    22    43 1   
    47    22    44 1   
    48    22    45 1   
@<TRIPOS>SUBSTRUCTURE
     1 2U8         1 TEMP              0 ****  ****    0 ROOT
