@<TRIPOS>MOLECULE
2U8
   46    48     1     0     0
SMALL
abcg2


@<TRIPOS>ATOM
      1 C1          -3.2420    -0.3240    -0.0600 ca         1 2U8       0.024000
      2 N1           3.1160    -0.2410     0.2710 n          1 2U8      -0.414800
      3 O1          -0.0390     3.0810     0.8950 oh         1 2U8      -0.647000
      4 C2          -3.2880    -1.4740    -0.8530 ca         1 2U8      -0.090000
      5 O2           3.2690    -2.3310    -0.6010 o          1 2U8      -0.549000
      6 C3          -4.3660     0.0490     0.6780 ca         1 2U8      -0.089000
      7 O3           4.8610    -1.5120     0.7650 os         1 2U8      -0.456100
      8 C4          -2.0580     0.4700    -0.0160 cg         1 2U8      -0.091000
      9 C5          -4.4490    -2.2270    -0.8960 ca         1 2U8      -0.109000
     10 C6          -5.5630    -1.8460    -0.1580 ca         1 2U8      -0.101000
     11 C7          -5.5350    -0.7050     0.6400 ca         1 2U8      -0.077300
     12 C8          -6.7270    -0.3010     1.4590 c3         1 2U8      -0.046800
     13 C9          -1.0580     1.1440     0.0120 c1         1 2U8      -0.169100
     14 C10          0.1500     1.9880     0.0220 c6         1 2U8       0.292100
     15 C11          0.4340     2.4540    -1.4120 c6         1 2U8      -0.102400
     16 C12          0.8020     1.2900    -2.3220 c6         1 2U8      -0.067400
     17 C13          2.0380     0.5760    -1.7920 c6         1 2U8      -0.094400
     18 C14          1.8440     0.0870    -0.3560 c5         1 2U8       0.132700
     19 C15          1.3160     1.1690     0.5940 c5         1 2U8      -0.063700
     20 C16          2.5810     1.9480     0.9520 c5         1 2U8      -0.083400
     21 C17          3.6290     0.8450     1.1050 c5         1 2U8       0.113000
     22 C19          5.5850    -2.7320     0.6520 c3         1 2U8       0.169900
     23 H1          -0.7360     3.6400     0.5340 ho         1 2U8       0.450000
     24 H2          -2.4220    -1.7660    -1.4320 ha         1 2U8       0.121000
     25 H3          -4.3240     0.9430     1.2890 ha         1 2U8       0.118000
     26 H4          -4.4890    -3.1160    -1.5110 ha         1 2U8       0.116000
     27 H5          -6.4660    -2.4430    -0.2050 ha         1 2U8       0.113000
     28 H6          -6.5950    -0.5880     2.5040 hc         1 2U8       0.043367
     29 H7          -6.8790     0.7780     1.4390 hc         1 2U8       0.043367
     30 H8          -7.6370    -0.7790     1.1000 hc         1 2U8       0.043367
     31 H9          -0.4430     2.9820    -1.7960 hc         1 2U8       0.050700
     32 H10          1.2540     3.1780    -1.3870 hc         1 2U8       0.050700
     33 H11         -0.0360     0.5920    -2.4010 hc         1 2U8       0.049200
     34 H12          0.9910     1.6590    -3.3310 hc         1 2U8       0.049200
     35 H13          2.2970    -0.2740    -2.4260 hc         1 2U8       0.054200
     36 H14          2.8920     1.2610    -1.8310 hc         1 2U8       0.054200
     37 H15          1.1860    -0.7850    -0.3520 h1         1 2U8       0.083700
     38 H16          0.9640     0.6670     1.5010 hc         1 2U8       0.075700
     39 H17          2.8580     2.6430     0.1570 hc         1 2U8       0.059700
     40 H18          2.4780     2.5260     1.8690 hc         1 2U8       0.059700
     41 H19          3.7070     0.5240     2.1460 h1         1 2U8       0.050700
     42 H20          4.6180     1.1710     0.7820 h1         1 2U8       0.050700
     43 H21          5.0200    -3.5760     1.0480 h1         1 2U8       0.046033
     44 H22          5.8670    -2.9430    -0.3790 h1         1 2U8       0.046033
     45 H23          6.4850    -2.5980     1.2470 h1         1 2U8       0.046033
     46 C18          3.7100    -1.4290     0.0880 c          1 2U8       0.644100
@<TRIPOS>BOND
     1     1     4 ar  
     2     1     6 ar  
     3     1     8 1   
     4     2    18 1   
     5     2    21 1   
     6     2    46 1   
     7     3    14 1   
     8     3    23 1   
     9     4     9 ar  
    10     4    24 1   
    11     5    46 2   
    12     6    11 ar  
    13     6    25 1   
    14     7    22 1   
    15     7    46 1   
    16     8    13 3   
    17     9    10 ar  
    18     9    26 1   
    19    10    11 ar  
    20    10    27 1   
    21    11    12 1   
    22    12    28 1   
    23    12    29 1   
    24    12    30 1   
    25    13    14 1   
    26    14    15 1   
    27    14    19 1   
    28    15    16 1   
    29    15    31 1   
    30    15    32 1   
    31    16    17 1   
    32    16    33 1   
    33    16    34 1   
    34    17    18 1   
    35    17    35 1   
    36    17    36 1   
    37    18    19 1   
    38    18    37 1   
    39    19    20 1   
    40    19    38 1   
    41    20    21 1   
    42    20    39 1   
    43    20    40 1   
    44    21    41 1   
    45    21    42 1   
    46    22    43 1   
    47    22    44 1   
    48    22    45 1   
@<TRIPOS>SUBSTRUCTURE
     1 2U8         1 TEMP              0 ****  ****    0 ROOT
