@<TRIPOS>MOLECULE
2U9
   42    44     1     0     0
SMALL
abcg2


@<TRIPOS>ATOM
      1 C1          -7.4440    -1.4810    -0.3970 ca         1 2U9      -0.103300
      2 C2          -7.3320    -0.2680     0.2870 ca         1 2U9      -0.074500
      3 C3          -6.1000     0.2850     0.5820 ca         1 2U9      -0.162000
      4 C7          -2.5580    -0.3470     0.1130 c3         1 2U9       0.131300
      5 C8          -1.4720     0.5940     0.5120 cc         1 2U9       0.408700
      6 C9           0.5420     1.3930     0.8360 cd         1 2U9       0.211500
      7 C10         -0.1630     2.4940     1.2160 cc         1 2U9      -0.217000
      8 C11          2.0230     1.3200     0.8400 c          1 2U9       0.541600
      9 C12          3.9220    -0.1520     0.3730 c5         1 2U9       0.130700
     10 C13          4.2530    -1.5860     0.7930 c5         1 2U9      -0.081400
     11 C14          5.7280    -1.7900     0.4800 c5         1 2U9      -0.285400
     12 C15          4.4530     0.0140    -1.0570 c5         1 2U9      -0.313400
     13 S1           5.9890    -0.9420    -1.0990 s6         1 2U9       1.047000
     14 O2           7.1460    -0.0540    -1.0090 o          1 2U9      -0.510000
     15 N1           2.5180     0.1260     0.4690 ns         1 2U9      -0.485900
     16 O1           2.7080     2.2780     1.1640 o          1 2U9      -0.594100
     17 N           -0.2130     0.3260     0.4410 nd         1 2U9      -0.650000
     18 S           -1.8340     2.1860     1.0760 ss         1 2U9       0.077600
     19 C4          -4.9310    -0.3690     0.1950 ca         1 2U9       0.133100
     20 C5          -5.0160    -1.5780    -0.4830 ca         1 2U9      -0.162000
     21 C6          -6.2680    -2.1160    -0.7710 ca         1 2U9      -0.074500
     22 C           -8.7910    -2.0720    -0.6990 c3         1 2U9      -0.042800
     23 H1          -8.2280     0.2590     0.5920 ha         1 2U9       0.114500
     24 H2          -6.0350     1.2290     1.1110 ha         1 2U9       0.122000
     25 H3          -2.5240    -0.4950    -0.9730 h1         1 2U9       0.064200
     26 H4          -2.3940    -1.3200     0.5890 h1         1 2U9       0.064200
     27 H5           0.2140     3.4400     1.5680 h4         1 2U9       0.182000
     28 H6           4.4490     0.5390     1.0320 h1         1 2U9       0.093700
     29 H7           4.0570    -1.7430     1.8520 hc         1 2U9       0.069700
     30 H8           3.6440    -2.2940     0.2260 hc         1 2U9       0.069700
     31 H9           6.3680    -1.3070     1.2180 h1         1 2U9       0.112200
     32 H10          6.0220    -2.8320     0.3670 h1         1 2U9       0.112200
     33 H11          3.7680    -0.4330    -1.7780 h1         1 2U9       0.117200
     34 H12          4.6640     1.0450    -1.3350 h1         1 2U9       0.117200
     35 H13          1.8630    -0.5850     0.1730 hn         1 2U9       0.340500
     36 H14         -4.1330    -2.1170    -0.7980 ha         1 2U9       0.122000
     37 H15         -6.3140    -3.0570    -1.3060 ha         1 2U9       0.114500
     38 H16         -9.4650    -1.3300    -1.1290 hc         1 2U9       0.042367
     39 H17         -8.7150    -2.9000    -1.4030 hc         1 2U9       0.042367
     40 H18         -9.2700    -2.4540     0.2050 hc         1 2U9       0.042367
     41 O           -3.7660     0.2430     0.5180 os         1 2U9      -0.359100
     42 O3           5.9400    -1.9080    -2.1960 o          1 2U9      -0.510000
@<TRIPOS>BOND
     1     1     2 ar  
     2     1    21 ar  
     3     1    22 1   
     4     2     3 ar  
     5     2    23 1   
     6     3    19 ar  
     7     3    24 1   
     8     4     5 1   
     9     4    25 1   
    10     4    26 1   
    11     4    41 1   
    12     5    17 2   
    13     5    18 1   
    14     6     7 2   
    15     6     8 1   
    16     6    17 1   
    17     7    18 1   
    18     7    27 1   
    19     8    15 1   
    20     8    16 2   
    21     9    10 1   
    22     9    12 1   
    23     9    15 1   
    24     9    28 1   
    25    10    11 1   
    26    10    29 1   
    27    10    30 1   
    28    11    13 1   
    29    11    31 1   
    30    11    32 1   
    31    12    13 1   
    32    12    33 1   
    33    12    34 1   
    34    13    14 2   
    35    13    42 2   
    36    15    35 1   
    37    19    20 ar  
    38    19    41 1   
    39    20    21 ar  
    40    20    36 1   
    41    21    37 1   
    42    22    38 1   
    43    22    39 1   
    44    22    40 1   
@<TRIPOS>SUBSTRUCTURE
     1 2U9         1 TEMP              0 ****  ****    0 ROOT
