@<TRIPOS>MOLECULE
2U9
   42    44     1     0     0
SMALL
No Charge or Current Charge


@<TRIPOS>ATOM
      1 C1          -7.3700    -1.7070    -0.0210 ca         1 2U9      -0.103300
      2 C2          -7.0360    -0.9380     1.1080 ca         1 2U9      -0.074500
      3 C3          -5.7960    -0.2790     1.1730 ca         1 2U9      -0.162000
      4 C7          -2.6680     0.2490    -0.7980 c3         1 2U9       0.131300
      5 C8          -1.4830     1.0840    -0.3750 cc         1 2U9       0.408700
      6 C9           0.6170     1.6070     0.2030 cd         1 2U9       0.211500
      7 C10          0.0290     2.8550     0.2620 cc         1 2U9      -0.217000
      8 C11          2.0820     1.4450     0.5250 c          1 2U9       0.541600
      9 C12          3.8970    -0.1970     0.6850 c5         1 2U9       0.130700
     10 C13          3.9140    -1.7280     0.9620 c5         1 2U9      -0.081400
     11 C14          5.4390    -2.0550     0.9260 c5         1 2U9      -0.285400
     12 C15          4.5890    -0.0730    -0.6920 c5         1 2U9      -0.313400
     13 S1           6.1320    -1.0670    -0.4890 s6         1 2U9       1.047000
     14 O2           7.2240    -0.2100    -0.0090 o          1 2U9      -0.510000
     15 N1           2.4990     0.1290     0.4150 ns         1 2U9      -0.485900
     16 O1           2.8330     2.3600     0.8510 o          1 2U9      -0.594100
     17 N           -0.2670     0.5850    -0.1710 nd         1 2U9      -0.650000
     18 S           -1.6610     2.8030    -0.1490 ss         1 2U9       0.077600
     19 C4          -4.8790    -0.3830     0.1150 ca         1 2U9       0.133100
     20 C5          -5.2100    -1.1560    -1.0190 ca         1 2U9      -0.162000
     21 C6          -6.4520    -1.8150    -1.0830 ca         1 2U9      -0.074500
     22 C           -8.7110    -2.4240    -0.0920 c3         1 2U9      -0.042800
     23 H1          -7.7360    -0.8500     1.9370 ha         1 2U9       0.114500
     24 H2          -5.5430     0.3140     2.0470 ha         1 2U9       0.122000
     25 H3          -3.0610     0.6520    -1.7400 h1         1 2U9       0.064200
     26 H4          -2.3340    -0.7810    -0.9760 h1         1 2U9       0.064200
     27 H5           0.4860     3.8010     0.5220 h4         1 2U9       0.182000
     28 H6           4.3680     0.3950     1.4850 h1         1 2U9       0.093700
     29 H7           3.4620    -1.9800     1.9290 hc         1 2U9       0.069700
     30 H8           3.3680    -2.2930     0.1940 hc         1 2U9       0.069700
     31 H9           5.9680    -1.7130     1.8230 h1         1 2U9       0.112200
     32 H10          5.6640    -3.1120     0.7430 h1         1 2U9       0.112200
     33 H11          4.0280    -0.5400    -1.5090 h1         1 2U9       0.117200
     34 H12          4.8750     0.9500    -0.9590 h1         1 2U9       0.117200
     35 H13          1.7890    -0.5440     0.1450 hn         1 2U9       0.340500
     36 H14         -4.5240    -1.2590    -1.8540 ha         1 2U9       0.122000
     37 H15         -6.6990    -2.4110    -1.9590 ha         1 2U9       0.114500
     38 H16         -9.4830    -1.8850     0.4700 hc         1 2U9       0.042367
     39 H17         -9.0620    -2.5160    -1.1270 hc         1 2U9       0.042367
     40 H18         -8.6360    -3.4340     0.3270 hc         1 2U9       0.042367
     41 O           -3.6790     0.2860     0.2350 os         1 2U9      -0.359100
     42 O3           6.3310    -1.9250    -1.6630 o          1 2U9      -0.510000
@<TRIPOS>BOND
     1     1     2 ar  
     2     1    21 ar  
     3     1    22 1   
     4     2     3 ar  
     5     2    23 1   
     6     3    19 ar  
     7     3    24 1   
     8     4     5 1   
     9     4    25 1   
    10     4    26 1   
    11     4    41 1   
    12     5    17 2   
    13     5    18 1   
    14     6     7 2   
    15     6     8 1   
    16     6    17 1   
    17     7    18 1   
    18     7    27 1   
    19     8    15 1   
    20     8    16 2   
    21     9    10 1   
    22     9    12 1   
    23     9    15 1   
    24     9    28 1   
    25    10    11 1   
    26    10    29 1   
    27    10    30 1   
    28    11    13 1   
    29    11    31 1   
    30    11    32 1   
    31    12    13 1   
    32    12    33 1   
    33    12    34 1   
    34    13    14 2   
    35    13    42 2   
    36    15    35 1   
    37    19    20 ar  
    38    19    41 1   
    39    20    21 ar  
    40    20    36 1   
    41    21    37 1   
    42    22    38 1   
    43    22    39 1   
    44    22    40 1   
@<TRIPOS>SUBSTRUCTURE
     1 2U9         1 TEMP              0 ****  ****    0 ROOT
