@<TRIPOS>MOLECULE
2UA
   36    37     1     0     0
SMALL
abcg2


@<TRIPOS>ATOM
      1 C1          -4.7050     0.5220     0.1040 cx         1 2UA      -0.272700
      2 C2          -5.8500     0.5250    -0.8800 cx         1 2UA      -0.095900
      3 C3          -5.9730    -0.2550     0.3720 cx         1 2UA      -0.095900
      4 C4          -3.4760    -0.2350    -0.2400 c          1 2UA       0.603100
      5 C5          -2.1930     0.3320     0.3070 c3         1 2UA      -0.178400
      6 C6          -0.9400    -0.4440    -0.0560 c3         1 2UA      -0.106400
      7 C7           0.3420     0.2100     0.4710 c3         1 2UA       0.158500
      8 C8           1.5650    -0.5810     0.0080 c3         1 2UA      -0.048400
      9 C9           2.8750     0.1330     0.2910 c5         1 2UA      -0.148700
     10 C10          3.0880     1.4300    -0.4910 c5         1 2UA      -0.090400
     11 C11          4.6080     1.5340    -0.6250 c5         1 2UA       0.100000
     12 N1           5.0130     0.1440    -0.5920 ns         1 2UA      -0.516900
     13 C12          4.1030    -0.6900    -0.0620 c          1 2UA       0.561000
     14 O1           4.2470    -1.8900     0.1160 o          1 2UA      -0.557000
     15 O2          -3.5130    -1.2460    -0.9090 o          1 2UA      -0.524100
     16 N            0.3940     0.3810     1.9170 n8         1 2UA      -1.003200
     17 H1          -4.5560     1.4240     0.6860 hc         1 2UA       0.087700
     18 H2          -6.4060     1.4480    -0.9730 hc         1 2UA       0.080700
     19 H3          -5.7030    -0.0150    -1.8060 hc         1 2UA       0.080700
     20 H4          -5.9090    -1.3340     0.3140 hc         1 2UA       0.080700
     21 H5          -6.6110     0.1230     1.1590 hc         1 2UA       0.080700
     22 H6          -2.1190     1.3720    -0.0350 hc         1 2UA       0.058200
     23 H7          -1.0090    -1.4680     0.3260 hc         1 2UA       0.060200
     24 H8           0.4020     1.2150     0.0360 h1         1 2UA       0.050700
     25 H9           1.5630    -1.5620     0.4920 hc         1 2UA       0.055700
     26 H10          1.4830    -0.7640    -1.0690 hc         1 2UA       0.055700
     27 H11          2.9380     0.3400     1.3670 hc         1 2UA       0.095700
     28 H12          2.6380     1.3360    -1.4830 hc         1 2UA       0.055200
     29 H13          2.6550     2.3050    -0.0100 hc         1 2UA       0.055200
     30 H14          4.9180     2.0100    -1.5560 h1         1 2UA       0.042700
     31 H15          5.0520     2.0950     0.2020 h1         1 2UA       0.042700
     32 H16          5.9540    -0.1530    -0.8000 hn         1 2UA       0.325500
     33 H17         -0.3140     1.0360     2.2210 hn         1 2UA       0.394500
     34 H18         -2.3200     0.4060     1.3930 hc         1 2UA       0.058200
     35 H19         -0.8660    -0.5270    -1.1440 hc         1 2UA       0.060200
     36 H20          0.1750    -0.4980     2.3730 hn         1 2UA       0.394500
@<TRIPOS>BOND
     1     1     2 1   
     2     1     3 1   
     3     1     4 1   
     4     1    17 1   
     5     2     3 1   
     6     2    18 1   
     7     2    19 1   
     8     3    20 1   
     9     3    21 1   
    10     4     5 1   
    11     4    15 2   
    12     5     6 1   
    13     5    22 1   
    14     5    34 1   
    15     6     7 1   
    16     6    23 1   
    17     6    35 1   
    18     7     8 1   
    19     7    16 1   
    20     7    24 1   
    21     8     9 1   
    22     8    25 1   
    23     8    26 1   
    24     9    10 1   
    25     9    13 1   
    26     9    27 1   
    27    10    11 1   
    28    10    28 1   
    29    10    29 1   
    30    11    12 1   
    31    11    30 1   
    32    11    31 1   
    33    12    13 1   
    34    12    32 1   
    35    13    14 2   
    36    16    33 1   
    37    16    36 1   
@<TRIPOS>SUBSTRUCTURE
     1 2UA         1 TEMP              0 ****  ****    0 ROOT
