@<TRIPOS>MOLECULE
2UA
   36    37     1     0     0
SMALL
No Charge or Current Charge


@<TRIPOS>ATOM
      1 C1          -4.5570     0.5670     0.1530 cx         1 2UA      -0.272700
      2 C2          -4.2590     0.5680    -1.3340 cx         1 2UA      -0.095900
      3 C3          -5.5210    -0.0840    -0.8220 cx         1 2UA      -0.095900
      4 C4          -3.7180    -0.3030     1.0660 c          1 2UA       0.603100
      5 C5          -2.3250     0.2280     1.4330 c3         1 2UA      -0.178400
      6 C6          -1.2040    -0.4700     0.6140 c3         1 2UA      -0.106400
      7 C7           0.2150     0.1090     0.8410 c3         1 2UA       0.158500
      8 C8           1.2670    -0.5410    -0.0950 c3         1 2UA      -0.048400
      9 C9           2.6940     0.0740    -0.0240 c5         1 2UA      -0.148700
     10 C10          2.7940     1.5680    -0.4440 c5         1 2UA      -0.090400
     11 C11          4.3060     1.6940    -0.7750 c5         1 2UA       0.100000
     12 N1           4.5600     0.3820    -1.3660 ns         1 2UA      -0.516900
     13 C12          3.7070    -0.6050    -0.9540 c          1 2UA       0.561000
     14 O1           3.6850    -1.7190    -1.4510 o          1 2UA      -0.557000
     15 O2          -4.1420    -1.3610     1.5140 o          1 2UA      -0.524100
     16 N            0.6060    -0.0430     2.2550 n8         1 2UA      -1.003200
     17 H1          -4.8720     1.5110     0.5900 hc         1 2UA       0.087700
     18 H2          -4.3570     1.5090    -1.8720 hc         1 2UA       0.080700
     19 H3          -3.4780    -0.0880    -1.7110 hc         1 2UA       0.080700
     20 H4          -5.5750    -1.1700    -0.8530 hc         1 2UA       0.080700
     21 H5          -6.4650     0.4200    -1.0160 hc         1 2UA       0.080700
     22 H6          -2.2840     1.3010     1.2120 hc         1 2UA       0.058200
     23 H7          -1.2030    -1.5450     0.8390 hc         1 2UA       0.060200
     24 H8           0.1780     1.1850     0.6160 h1         1 2UA       0.050700
     25 H9           1.3210    -1.6140     0.1300 hc         1 2UA       0.055700
     26 H10          0.9030    -0.4710    -1.1280 hc         1 2UA       0.055700
     27 H11          3.0870    -0.0230     0.9940 hc         1 2UA       0.095700
     28 H12          2.1850     1.7730    -1.3330 hc         1 2UA       0.055200
     29 H13          2.4750     2.2610     0.3420 hc         1 2UA       0.055200
     30 H14          4.5080     2.5210    -1.4690 h1         1 2UA       0.042700
     31 H15          4.9050     1.8450     0.1320 h1         1 2UA       0.042700
     32 H16          5.2670     0.1640    -2.0590 hn         1 2UA       0.325500
     33 H17         -0.1200     0.3780     2.8430 hn         1 2UA       0.394500
     34 H18         -2.1580     0.0540     2.5020 hc         1 2UA       0.058200
     35 H19         -1.4430    -0.3790    -0.4520 hc         1 2UA       0.060200
     36 H20          0.5690    -1.0370     2.5040 hn         1 2UA       0.394500
@<TRIPOS>BOND
     1     1     2 1   
     2     1     3 1   
     3     1     4 1   
     4     1    17 1   
     5     2     3 1   
     6     2    18 1   
     7     2    19 1   
     8     3    20 1   
     9     3    21 1   
    10     4     5 1   
    11     4    15 2   
    12     5     6 1   
    13     5    22 1   
    14     5    34 1   
    15     6     7 1   
    16     6    23 1   
    17     6    35 1   
    18     7     8 1   
    19     7    16 1   
    20     7    24 1   
    21     8     9 1   
    22     8    25 1   
    23     8    26 1   
    24     9    10 1   
    25     9    13 1   
    26     9    27 1   
    27    10    11 1   
    28    10    28 1   
    29    10    29 1   
    30    11    12 1   
    31    11    30 1   
    32    11    31 1   
    33    12    13 1   
    34    12    32 1   
    35    13    14 2   
    36    16    33 1   
    37    16    36 1   
@<TRIPOS>SUBSTRUCTURE
     1 2UA         1 TEMP              0 ****  ****    0 ROOT
