@<TRIPOS>MOLECULE
2UB
   19    19     1     0     0
SMALL
No Charge or Current Charge


@<TRIPOS>ATOM
      1 OAL          1.3810     1.8780    -0.5970 o          1 2UB      -0.693000
      2 CAJ          2.4280     1.3210    -0.2950 c          1 2UB       0.716200
      3 OAM          3.4910     1.9280    -0.2600 o          1 2UB      -0.693000
      4 CAI          2.4410    -0.1880    -0.0180 ce         1 2UB       0.016400
      5 SAK          4.0630    -0.9970     0.1490 sh         1 2UB      -0.290400
      6 CAG          1.3360    -0.9980     0.0810 cf         1 2UB      -0.253200
      7 CAE         -0.1110    -0.7140     0.0790 ca         1 2UB       0.034200
      8 CAD         -0.9760    -1.5590    -0.6440 ca         1 2UB      -0.087000
      9 CAC         -2.3650    -1.3370    -0.6310 ca         1 2UB      -0.115000
     10 CAB         -2.8990    -0.2780     0.1200 ca         1 2UB       0.101000
     11 Cl          -4.6350    -0.0030     0.1410 cl         1 2UB      -0.256000
     12 CAA         -2.0480     0.5530     0.8660 ca         1 2UB      -0.115000
     13 CAF         -0.6590     0.3310     0.8510 ca         1 2UB      -0.087000
     14 H2           1.5390    -2.0600     0.2190 ha         1 2UB       0.137000
     15 H4          -0.5690    -2.3840    -1.2230 ha         1 2UB       0.120500
     16 H5          -3.0250    -1.9870    -1.2000 ha         1 2UB       0.110500
     17 H6          -2.4630     1.3630     1.4590 ha         1 2UB       0.110500
     18 H7          -0.0100     0.9640     1.4500 ha         1 2UB       0.120500
     19 H8           3.6270    -2.2590     0.3620 hs         1 2UB       0.119800
@<TRIPOS>BOND
     1     1     2 1   
     2     2     3 1   
     3     2     4 1   
     4     4     5 1   
     5     4     6 2   
     6     5    19 1   
     7     6     7 1   
     8     6    14 1   
     9     7     8 ar  
    10     7    13 ar  
    11     8     9 ar  
    12     8    15 1   
    13     9    10 ar  
    14     9    16 1   
    15    10    11 1   
    16    10    12 ar  
    17    12    13 ar  
    18    12    17 1   
    19    13    18 1   
@<TRIPOS>SUBSTRUCTURE
     1 2UB         1 TEMP              0 ****  ****    0 ROOT
