@<TRIPOS>MOLECULE
2UB
   19    19     1     0     0
SMALL
abcg2


@<TRIPOS>ATOM
      1 OAL          1.3690     1.7840    -0.7390 o          1 2UB      -0.693000
      2 CAJ          2.3850     1.2700    -0.2520 c          1 2UB       0.716200
      3 OAM          3.4630     1.8250     0.0350 o          1 2UB      -0.693000
      4 CAI          2.3730    -0.2380     0.0010 ce         1 2UB       0.016400
      5 SAK          4.0350    -0.8240     0.1320 sh         1 2UB      -0.290400
      6 CAG          1.3150    -1.0560     0.0830 cf         1 2UB      -0.253200
      7 CAE         -0.1150    -0.7190     0.0790 ca         1 2UB       0.034200
      8 CAD         -0.9970    -1.5590    -0.6030 ca         1 2UB      -0.087000
      9 CAC         -2.3660    -1.3330    -0.6000 ca         1 2UB      -0.115000
     10 CAB         -2.8660    -0.2590     0.1170 ca         1 2UB       0.101000
     11 CL          -4.5760     0.0330     0.1430 cl         1 2UB      -0.256000
     12 CAA         -2.0190     0.5770     0.8300 ca         1 2UB      -0.115000
     13 CAF         -0.6540     0.3430     0.8070 ca         1 2UB      -0.087000
     14 H2           1.5070    -2.1220     0.1740 ha         1 2UB       0.137000
     15 H4          -0.6100    -2.4080    -1.1530 ha         1 2UB       0.120500
     16 H5          -3.0290    -1.9920    -1.1450 ha         1 2UB       0.110500
     17 H6          -2.4190     1.4010     1.4050 ha         1 2UB       0.110500
     18 H7          -0.0070     0.9840     1.3870 ha         1 2UB       0.120500
     19 H8           3.7580    -2.1340     0.2100 hs         1 2UB       0.119800
@<TRIPOS>BOND
     1     1     2 1   
     2     2     3 1   
     3     2     4 1   
     4     4     5 1   
     5     4     6 2   
     6     5    19 1   
     7     6     7 1   
     8     6    14 1   
     9     7     8 ar  
    10     7    13 ar  
    11     8     9 ar  
    12     8    15 1   
    13     9    10 ar  
    14     9    16 1   
    15    10    11 1   
    16    10    12 ar  
    17    12    13 ar  
    18    12    17 1   
    19    13    18 1   
@<TRIPOS>SUBSTRUCTURE
     1 2UB         1 TEMP              0 ****  ****    0 ROOT
