@<TRIPOS>MOLECULE
2UD
   23    24     1     0     0
SMALL
bcc


@<TRIPOS>ATOM
      1 OAN          4.5460     1.3240    -1.3240 o          1 2UD      -0.794300
      2 CAM          3.7900     1.6360    -0.3860 c          1 2UD       0.884600
      3 OAO          3.7110     2.7130     0.2170 o          1 2UD      -0.794300
      4 CAK          2.8460     0.5080     0.0650 cs         1 2UD       0.216400
      5 SAL          2.4650     0.3040     1.6250 s          1 2UD      -0.481400
      6 CAJ          2.3640    -0.3990    -1.0330 c3         1 2UD      -0.071200
      7 CAI          1.3240    -1.3940    -0.6640 cc         1 2UD      -0.082400
      8 CAE         -0.0450    -1.1300    -0.3450 ca         1 2UD      -0.081800
      9 CAF         -0.8020     0.0430    -0.2670 ca         1 2UD      -0.020000
     10 CAA         -2.1330    -0.0700     0.0740 ca         1 2UD      -0.056900
     11 BR          -3.1920     1.4990     0.1900 br         1 2UD      -0.135100
     12 CAB         -2.7400    -1.3060     0.3460 ca         1 2UD      -0.097000
     13 CAC         -2.0020    -2.4710     0.2780 ca         1 2UD      -0.159000
     14 CAD         -0.6570    -2.3730    -0.0670 ca         1 2UD      -0.042200
     15 NAG          0.2970    -3.3340    -0.2090 na         1 2UD      -0.178400
     16 CAH          1.4770    -2.7470    -0.5680 cd         1 2UD      -0.124100
     17 H2           2.0160     0.2360    -1.8570 hc         1 2UD       0.078200
     18 H3           3.2470    -0.9030    -1.4370 hc         1 2UD       0.078200
     19 H4          -0.3500     1.0060    -0.4700 ha         1 2UD       0.164000
     20 H5          -3.7880    -1.3550     0.6120 ha         1 2UD       0.130000
     21 H6          -2.4660    -3.4260     0.4890 ha         1 2UD       0.121000
     22 H7           0.1560    -4.3240    -0.0950 hn         1 2UD       0.287700
     23 H8           2.3580    -3.3470    -0.7350 h4         1 2UD       0.159000
@<TRIPOS>BOND
     1     1     2 1   
     2     2     3 1   
     3     2     4 1   
     4     4     5 2   
     5     4     6 1   
     6     6     7 1   
     7     6    17 1   
     8     6    18 1   
     9     7     8 1   
    10     7    16 2   
    11     8     9 ar  
    12     8    14 ar  
    13     9    10 ar  
    14     9    19 1   
    15    10    11 1   
    16    10    12 ar  
    17    12    13 ar  
    18    12    20 1   
    19    13    14 ar  
    20    13    21 1   
    21    14    15 1   
    22    15    16 1   
    23    15    22 1   
    24    16    23 1   
@<TRIPOS>SUBSTRUCTURE
     1 2UD         1 TEMP              0 ****  ****    0 ROOT
