@<TRIPOS>MOLECULE
2UD
   23    24     1     0     0
SMALL
No Charge or Current Charge


@<TRIPOS>ATOM
      1 OAN          2.2600     2.2230    -0.3060 o          1 2UD      -0.689000
      2 CAM          2.6590     1.3530     0.4600 c          1 2UD       0.674000
      3 OAO          2.5900     1.4240     1.6820 o          1 2UD      -0.689000
      4 CAK          3.3590     0.0790    -0.1700 cs         1 2UD       0.216400
      5 SAL          4.8790    -0.4950     0.3040 s          1 2UD      -0.481400
      6 CAJ          2.5450    -0.6350    -1.2430 c3         1 2UD      -0.071200
      7 CAI          1.4350    -1.4820    -0.6810 cc         1 2UD      -0.082400
      8 CAE          0.0620    -1.1010    -0.4990 ca         1 2UD      -0.081800
      9 CAF         -0.5960     0.1040    -0.7910 ca         1 2UD      -0.002000
     10 CAA         -1.9730     0.1910    -0.4950 ca         1 2UD      -0.056900
     11 Br          -2.9230     1.8070    -0.8690 br         1 2UD      -0.135100
     12 CAB         -2.6560    -0.9090     0.0750 ca         1 2UD      -0.079000
     13 CAC         -1.9630    -2.1060     0.3540 ca         1 2UD      -0.141000
     14 CAD         -0.5950    -2.1650     0.0520 ca         1 2UD      -0.042200
     15 NAG          0.2670    -3.2280     0.2440 na         1 2UD      -0.228700
     16 CAH          1.5330    -2.7900    -0.2160 cd         1 2UD      -0.174100
     17 H2           2.1380     0.1000    -1.9470 hc         1 2UD       0.078200
     18 H3           3.2150    -1.2670    -1.8380 hc         1 2UD       0.078200
     19 H4          -0.0660     0.9460    -1.2290 ha         1 2UD       0.146000
     20 H5          -3.7170    -0.8330     0.2990 ha         1 2UD       0.112000
     21 H6          -2.4770    -2.9580     0.7930 ha         1 2UD       0.103000
     22 H7           0.0370    -4.1360     0.6370 hn         1 2UD       0.338000
     23 H8           2.4080    -3.4330    -0.1760 h4         1 2UD       0.209000
@<TRIPOS>BOND
     1     1     2 1   
     2     2     3 1   
     3     2     4 1   
     4     4     5 2   
     5     4     6 1   
     6     6     7 1   
     7     6    17 1   
     8     6    18 1   
     9     7     8 1   
    10     7    16 2   
    11     8     9 ar  
    12     8    14 ar  
    13     9    10 ar  
    14     9    19 1   
    15    10    11 1   
    16    10    12 ar  
    17    12    13 ar  
    18    12    20 1   
    19    13    14 ar  
    20    13    21 1   
    21    14    15 1   
    22    15    16 1   
    23    15    22 1   
    24    16    23 1   
@<TRIPOS>SUBSTRUCTURE
     1 2UD         1 TEMP              0 ****  ****    0 ROOT
