@<TRIPOS>MOLECULE
2UF
   24    23     1     0     0
SMALL
bcc


@<TRIPOS>ATOM
      1 O6A         -3.6970    -0.6010    -0.8580 o          1 2UF      -0.813800
      2 C6          -2.9100     0.0190    -0.1250 c          1 2UF       0.901600
      3 O6B         -3.0730     1.1630     0.3630 o          1 2UF      -0.813800
      4 C5          -1.5870    -0.6980     0.2150 c3         1 2UF      -0.042900
      5 O5          -1.4980    -1.8970    -0.5040 oh         1 2UF      -0.635800
      6 C4          -0.3820     0.2140    -0.0880 c3         1 2UF       0.134100
      7 O4          -0.4960     1.4210     0.6260 oh         1 2UF      -0.670800
      8 C3           0.9400    -0.4540     0.3170 c3         1 2UF       0.106100
      9 O3           1.0950    -0.4010     1.7200 oh         1 2UF      -0.624800
     10 C2           2.1580     0.1270    -0.4080 c3         1 2UF       0.126100
     11 O2           2.3590     1.4990    -0.1590 oh         1 2UF      -0.574800
     12 C1           3.4040    -0.6900    -0.0970 c3         1 2UF       0.100400
     13 O1           4.4640    -0.2330    -0.9060 oh         1 2UF      -0.592800
     14 H2          -1.5930    -0.9010     1.2980 h1         1 2UF       0.044700
     15 H3          -2.3290    -1.9220    -1.0090 ho         1 2UF       0.433000
     16 H4          -0.3640     0.3860    -1.1760 h1         1 2UF       0.038700
     17 H5          -1.4670     1.5890     0.6850 ho         1 2UF       0.478000
     18 H6           0.8840    -1.5090     0.0270 h1         1 2UF       0.075700
     19 H7           0.6340     0.3980     2.0120 ho         1 2UF       0.426000
     20 H8           1.9610     0.0420    -1.4830 h1         1 2UF       0.078700
     21 H9           2.4690     1.6200     0.7900 ho         1 2UF       0.397000
     22 H10          3.6450    -0.6000     0.9710 h1         1 2UF       0.021700
     23 H11          3.1840    -1.7490    -0.2860 h1         1 2UF       0.021700
     24 H12          5.2500    -0.7360    -0.6760 ho         1 2UF       0.385000
@<TRIPOS>BOND
     1     1     2 1   
     2     2     3 1   
     3     2     4 1   
     4     4     5 1   
     5     4     6 1   
     6     4    14 1   
     7     5    15 1   
     8     6     7 1   
     9     6     8 1   
    10     6    16 1   
    11     7    17 1   
    12     8     9 1   
    13     8    10 1   
    14     8    18 1   
    15     9    19 1   
    16    10    11 1   
    17    10    12 1   
    18    10    20 1   
    19    11    21 1   
    20    12    13 1   
    21    12    22 1   
    22    12    23 1   
    23    13    24 1   
@<TRIPOS>SUBSTRUCTURE
     1 2UF         1 TEMP              0 ****  ****    0 ROOT
