@<TRIPOS>MOLECULE
2UF
   24    23     1     0     0
SMALL
No Charge or Current Charge


@<TRIPOS>ATOM
      1 O6A         -3.8810    -0.3600    -0.5330 o          1 2UF      -0.708500
      2 C6          -2.9360     0.1860     0.0230 c          1 2UF       0.691000
      3 O6B         -2.9220     1.3690     0.3430 o          1 2UF      -0.708500
      4 C5          -1.6310    -0.6680     0.2300 c3         1 2UF      -0.019700
      5 O5          -1.6800    -1.9030    -0.5450 oh         1 2UF      -0.758000
      6 C4          -0.3300     0.1340    -0.1020 c3         1 2UF       0.157300
      7 O4          -0.3360     1.3870     0.6170 oh         1 2UF      -0.793000
      8 C3           0.9940    -0.6180     0.2510 c3         1 2UF       0.129300
      9 O3           1.1140    -0.6390     1.6890 oh         1 2UF      -0.747000
     10 C2           2.2380     0.0730    -0.4020 c3         1 2UF       0.149300
     11 O2           2.2850     1.4580     0.0100 oh         1 2UF      -0.697000
     12 C1           3.5770    -0.6600    -0.0790 c3         1 2UF       0.123600
     13 O1           4.6710    -0.1440    -0.8640 oh         1 2UF      -0.715000
     14 H2          -1.6120    -0.9170     1.2990 h1         1 2UF       0.044700
     15 H3          -2.6160    -1.9570    -0.8720 ho         1 2UF       0.532000
     16 H4          -0.3360     0.3330    -1.1840 h1         1 2UF       0.038700
     17 H5          -1.3050     1.6680     0.6020 ho         1 2UF       0.577000
     18 H6           0.9360    -1.6420    -0.1450 h1         1 2UF       0.075700
     19 H7           0.6470     0.1890     1.9630 ho         1 2UF       0.525000
     20 H8           2.0940     0.0190    -1.4910 h1         1 2UF       0.078700
     21 H9           1.3420     1.6560     0.2740 ho         1 2UF       0.496000
     22 H10          3.7980    -0.5590     0.9920 h1         1 2UF       0.021700
     23 H11          3.4490    -1.7310    -0.2850 h1         1 2UF       0.021700
     24 H12          5.4900    -0.5870    -0.5420 ho         1 2UF       0.484000
@<TRIPOS>BOND
     1     1     2 1   
     2     2     3 1   
     3     2     4 1   
     4     4     5 1   
     5     4     6 1   
     6     4    14 1   
     7     5    15 1   
     8     6     7 1   
     9     6     8 1   
    10     6    16 1   
    11     7    17 1   
    12     8     9 1   
    13     8    10 1   
    14     8    18 1   
    15     9    19 1   
    16    10    11 1   
    17    10    12 1   
    18    10    20 1   
    19    11    21 1   
    20    12    13 1   
    21    12    22 1   
    22    12    23 1   
    23    13    24 1   
@<TRIPOS>SUBSTRUCTURE
     1 2UF         1 TEMP              0 ****  ****    0 ROOT
