@<TRIPOS>MOLECULE
2UG
   41    44     1     0     0
SMALL
No Charge or Current Charge


@<TRIPOS>ATOM
      1 C1           3.1500     1.8970    -0.3250 ca         1 2UG       0.175900
      2 C2           2.2410     0.9360     0.1790 cp         1 2UG      -0.344500
      3 C3           0.8240     1.3300     0.4310 cp         1 2UG       0.256500
      4 C11         -4.5250     1.1160    -0.4120 ca         1 2UG      -0.214000
      5 C12          2.7790    -0.3650     0.4200 ca         1 2UG       0.229300
      6 C13          1.9960    -1.5310     1.0230 c3         1 2UG      -0.099700
      7 C14          1.4480    -2.4870    -0.0340 cx         1 2UG      -0.115700
      8 C15          2.2630    -3.6660    -0.5120 cx         1 2UG      -0.130900
      9 C16          1.0340    -3.8920     0.3380 cx         1 2UG      -0.130900
     10 C            4.8210     0.3570    -0.3220 ca         1 2UG       0.402900
     11 N6           4.0750    -0.6400     0.1630 nb         1 2UG      -0.270000
     12 N1           4.4390     1.6110    -0.5810 nb         1 2UG      -0.251000
     13 N5          -0.1550     0.4920     0.0390 nb         1 2UG      -0.250000
     14 C6          -1.4250     0.8810     0.2350 ca         1 2UG       0.387900
     15 N2          -1.8310     2.0320     0.8010 nb         1 2UG      -0.226000
     16 C5          -0.8630     2.8850     1.1860 ca         1 2UG       0.147900
     17 C4           0.4930     2.5730     1.0120 ca         1 2UG      -0.268000
     18 N3          -2.3800    -0.0500    -0.1550 nu         1 2UG      -0.927900
     19 C7          -3.7730    -0.0520    -0.2430 ca         1 2UG       0.358000
     20 C10         -5.9180     1.0190    -0.5070 ca         1 2UG       0.357400
     21 N4          -6.5780    -0.1590    -0.4500 nb         1 2UG      -0.685000
     22 C9          -5.8450    -1.2840    -0.3010 ca         1 2UG       0.357400
     23 C8          -4.4490    -1.2730    -0.2000 ca         1 2UG      -0.214000
     24 H1           2.8320     2.9160    -0.5410 h4         1 2UG       0.023100
     25 H2          -4.0570     2.0890    -0.4910 ha         1 2UG       0.137500
     26 H3           2.6420    -2.0820     1.7180 hc         1 2UG       0.064700
     27 H4           1.1760    -1.1590     1.6470 hc         1 2UG       0.064700
     28 H5           0.8400    -1.9840    -0.7820 hc         1 2UG       0.088700
     29 H6           2.2070    -3.9260    -1.5660 hc         1 2UG       0.071450
     30 H7           3.2350    -3.8370    -0.0530 hc         1 2UG       0.071450
     31 H8           1.1820    -4.2150     1.3660 hc         1 2UG       0.071450
     32 H9           0.1520    -4.3050    -0.1460 hc         1 2UG       0.071450
     33 H10          6.3880    -0.9190    -0.6150 hn         1 2UG       0.506500
     34 H11          6.6580     0.7020    -1.1550 hn         1 2UG       0.506500
     35 H12         -1.1800     3.8240     1.6380 h4         1 2UG       0.026100
     36 H13          1.2650     3.2690     1.3280 ha         1 2UG       0.138000
     37 H14         -1.9620    -0.9580    -0.3570 hn         1 2UG       0.512000
     38 H15         -6.5290     1.9110    -0.6400 h4         1 2UG       0.016600
     39 H16         -6.3980    -2.2220    -0.2620 h4         1 2UG       0.016600
     40 H17         -3.9120    -2.2080    -0.0800 ha         1 2UG       0.137500
     41 N            6.1180     0.0610    -0.5780 nv         1 2UG      -1.066900
@<TRIPOS>BOND
     1     1     2 ar  
     2     1    12 ar  
     3     1    24 1   
     4     2     3 1   
     5     2     5 ar  
     6     3    13 ar  
     7     3    17 ar  
     8     4    19 ar  
     9     4    20 ar  
    10     4    25 1   
    11     5     6 1   
    12     5    11 ar  
    13     6     7 1   
    14     6    26 1   
    15     6    27 1   
    16     7     8 1   
    17     7     9 1   
    18     7    28 1   
    19     8     9 1   
    20     8    29 1   
    21     8    30 1   
    22     9    31 1   
    23     9    32 1   
    24    10    11 ar  
    25    10    12 ar  
    26    10    41 1   
    27    13    14 ar  
    28    14    15 ar  
    29    14    18 1   
    30    15    16 ar  
    31    16    17 ar  
    32    16    35 1   
    33    17    36 1   
    34    18    19 1   
    35    18    37 1   
    36    19    23 ar  
    37    20    21 ar  
    38    20    38 1   
    39    21    22 ar  
    40    22    23 ar  
    41    22    39 1   
    42    23    40 1   
    43    33    41 1   
    44    34    41 1   
@<TRIPOS>SUBSTRUCTURE
     1 2UG         1 TEMP              0 ****  ****    0 ROOT
