@<TRIPOS>MOLECULE
2UG
   41    44     1     0     0
SMALL
abcg2


@<TRIPOS>ATOM
      1 C1           3.1460     1.7690    -0.3820 ca         1 2UG       0.175900
      2 C2           2.2000     0.8850     0.1350 cp         1 2UG      -0.344500
      3 C3           0.8090     1.3260     0.2760 cp         1 2UG       0.256500
      4 C11         -4.5200     1.0420     0.1690 ca         1 2UG      -0.214000
      5 C12          2.6910    -0.3850     0.4880 ca         1 2UG       0.229300
      6 C13          1.8550    -1.4820     1.0830 c3         1 2UG      -0.099700
      7 C14          1.3420    -2.4310     0.0210 cx         1 2UG      -0.115700
      8 C15          2.2570    -3.4530    -0.5740 cx         1 2UG      -0.130900
      9 C16          1.1550    -3.8800     0.3490 cx         1 2UG      -0.130900
     10 C            4.7820     0.2380    -0.2010 ca         1 2UG       0.402900
     11 N6           3.9700    -0.6840     0.3250 nb         1 2UG      -0.270000
     12 N1           4.4150     1.4750    -0.5640 nb         1 2UG      -0.251000
     13 N5          -0.1590     0.4600     0.0090 nb         1 2UG      -0.250000
     14 C6          -1.4180     0.8800     0.1230 ca         1 2UG       0.387900
     15 N2          -1.8080     2.0980     0.4690 nb         1 2UG      -0.226000
     16 C5          -0.8340     2.9620     0.7340 ca         1 2UG       0.147900
     17 C4           0.5030     2.6350     0.6620 ca         1 2UG      -0.268000
     18 N3          -2.3460    -0.0830    -0.1690 nu         1 2UG      -0.927900
     19 C7          -3.7220    -0.0510    -0.1800 ca         1 2UG       0.358000
     20 C10         -5.8970     0.8990     0.1040 ca         1 2UG       0.357400
     21 N4          -6.5320    -0.2050    -0.2680 nb         1 2UG      -0.685000
     22 C9          -5.7650    -1.2410    -0.5990 ca         1 2UG       0.357400
     23 C8          -4.3860    -1.2200    -0.5740 ca         1 2UG      -0.214000
     24 H1           2.8420     2.7660    -0.6870 h4         1 2UG       0.023100
     25 H2          -4.0910     1.9780     0.4840 ha         1 2UG       0.137500
     26 H3           2.4870    -2.0310     1.7840 hc         1 2UG       0.064700
     27 H4           1.0150    -1.0770     1.6470 hc         1 2UG       0.064700
     28 H5           0.6110    -1.9880    -0.6450 hc         1 2UG       0.088700
     29 H6           2.1590    -3.6750    -1.6290 hc         1 2UG       0.071450
     30 H7           3.2750    -3.4920    -0.2060 hc         1 2UG       0.071450
     31 H8           1.4270    -4.2170     1.3420 hc         1 2UG       0.071450
     32 H9           0.2990    -4.3930    -0.0720 hc         1 2UG       0.071450
     33 H10          6.3730    -1.0350    -0.1820 hn         1 2UG       0.506500
     34 H11          6.7020     0.5400    -0.8120 hn         1 2UG       0.506500
     35 H12         -1.1430     3.9590     1.0250 h4         1 2UG       0.026100
     36 H13          1.2660     3.3570     0.9150 ha         1 2UG       0.138000
     37 H14         -1.9290    -0.9630    -0.4350 hn         1 2UG       0.512000
     38 H15         -6.5200     1.7450     0.3750 h4         1 2UG       0.016600
     39 H16         -6.2750    -2.1470    -0.9060 h4         1 2UG       0.016600
     40 H17         -3.8290    -2.1040    -0.8600 ha         1 2UG       0.137500
     41 N            6.0690    -0.0930    -0.3560 nv         1 2UG      -1.066900
@<TRIPOS>BOND
     1     1     2 ar  
     2     1    12 ar  
     3     1    24 1   
     4     2     3 1   
     5     2     5 ar  
     6     3    13 ar  
     7     3    17 ar  
     8     4    19 ar  
     9     4    20 ar  
    10     4    25 1   
    11     5     6 1   
    12     5    11 ar  
    13     6     7 1   
    14     6    26 1   
    15     6    27 1   
    16     7     8 1   
    17     7     9 1   
    18     7    28 1   
    19     8     9 1   
    20     8    29 1   
    21     8    30 1   
    22     9    31 1   
    23     9    32 1   
    24    10    11 ar  
    25    10    12 ar  
    26    10    41 1   
    27    13    14 ar  
    28    14    15 ar  
    29    14    18 1   
    30    15    16 ar  
    31    16    17 ar  
    32    16    35 1   
    33    17    36 1   
    34    18    19 1   
    35    18    37 1   
    36    19    23 ar  
    37    20    21 ar  
    38    20    38 1   
    39    21    22 ar  
    40    22    23 ar  
    41    22    39 1   
    42    23    40 1   
    43    33    41 1   
    44    34    41 1   
@<TRIPOS>SUBSTRUCTURE
     1 2UG         1 TEMP              0 ****  ****    0 ROOT
