@<TRIPOS>MOLECULE
2UI
   87    90     1     0     0
SMALL
No Charge or Current Charge


@<TRIPOS>ATOM
      1 C7         -33.1670    17.9970    -5.0300 c5         1 2UI      -0.055700
      2 C8         -32.7790    18.6280    -3.6430 c5         1 2UI      -0.077400
      3 C9         -31.2450    18.3870    -3.4750 c5         1 2UI      -0.070400
      4 C1         -34.7340    17.5380    -5.0970 c3         1 2UI      -0.046700
      5 C5         -36.9670    22.0650    -6.4520 c3         1 2UI      -0.073400
      6 C6         -35.6970    22.9180    -6.6740 c3         1 2UI       0.164600
      7 C4         -36.8390    20.9610    -5.3730 c3         1 2UI       0.172300
      8 C2         -35.7690    18.6760    -4.7370 c3         1 2UI      -0.074400
      9 C          -35.1890    16.8480    -6.4330 c3         1 2UI      -0.086100
     10 O          -36.5640    21.5650    -4.1040 oh         1 2UI      -0.672000
     11 C10        -30.8280    17.8140    -4.8520 c5         1 2UI      -0.063700
     12 C11        -29.4540    17.0960    -4.9380 c6         1 2UI      -0.044700
     13 C12        -28.2700    18.0220    -4.5560 c6         1 2UI      -0.069400
     14 C13        -26.9020    17.3220    -4.7730 c6         1 2UI      -0.068400
     15 C14        -26.7030    16.7940    -6.2300 c6         1 2UI      -0.049700
     16 C15        -26.5280    17.9880    -7.2250 c6         1 2UI      -0.069400
     17 C16        -26.2900    17.5230    -8.6880 c6         1 2UI      -0.058700
     18 C17        -27.4610    16.5960    -9.1220 c6         1 2UI      -0.071400
     19 C18        -27.6000    15.3940    -8.1580 c6         1 2UI      -0.069400
     20 C19        -27.8510    15.8010    -6.6650 c6         1 2UI      -0.031000
     21 C20        -27.7650    14.4840    -5.8180 c3         1 2UI      -0.084100
     22 C21        -29.2670    16.5250    -6.4340 c6         1 2UI      -0.045700
     23 C22        -30.5080    15.6650    -6.9290 c6         1 2UI      -0.071400
     24 C23        -31.8530    16.4190    -6.7110 c6         1 2UI      -0.061400
     25 C24        -32.0470    16.9070    -5.2360 c5         1 2UI      -0.041000
     26 C25        -32.2610    15.6510    -4.3210 c3         1 2UI      -0.078100
     27 C26        -26.1050    18.7580    -9.6420 c3         1 2UI      -0.099400
     28 C27        -25.1740    18.6120   -10.8890 c3         1 2UI       0.178000
     29 C28        -25.5570    17.4370   -11.8180 c3         1 2UI      -0.098600
     30 C29        -25.1640    19.9330   -11.6930 c3         1 2UI      -0.098600
     31 O2         -23.8400    18.3880   -10.4300 oh         1 2UI      -0.670000
     32 H1         -33.0610    18.7610    -5.8090 hc         1 2UI       0.044700
     33 H2         -33.0230    19.6960    -3.6150 hc         1 2UI       0.040200
     34 H3         -33.3290    18.1620    -2.8170 hc         1 2UI       0.040200
     35 H4         -31.0340    17.6810    -2.6630 hc         1 2UI       0.042700
     36 H5         -30.7090    19.3130    -3.2380 hc         1 2UI       0.042700
     37 H6         -35.1260    24.4350    -7.7750 ho         1 2UI       0.440000
     38 H7         -34.9400    16.7650    -4.3270 hc         1 2UI       0.046700
     39 H9         -37.7950    22.7290    -6.1760 hc         1 2UI       0.060700
     40 H10        -35.4080    23.3990    -5.7300 h1         1 2UI       0.027200
     41 H11        -34.8690    22.2690    -6.9900 h1         1 2UI       0.027200
     42 H12        -37.8080    20.4440    -5.3260 h1         1 2UI       0.031700
     43 H14        -35.5720    19.0160    -3.7130 hc         1 2UI       0.035700
     44 H15        -36.2820    16.7700    -6.4890 hc         1 2UI       0.033700
     45 H16        -34.8390    17.4120    -7.3050 hc         1 2UI       0.033700
     46 H17        -34.7980    15.8270    -6.4940 hc         1 2UI       0.033700
     47 H18        -36.5280    20.8370    -3.4470 ho         1 2UI       0.440000
     48 H19        -30.7410    18.6450    -5.5630 hc         1 2UI       0.041700
     49 H20        -29.4620    16.2580    -4.2310 hc         1 2UI       0.048700
     50 H21        -28.3150    18.9540    -5.1350 hc         1 2UI       0.038700
     51 H22        -28.3550    18.3180    -3.5020 hc         1 2UI       0.038700
     52 H23        -26.7990    16.4960    -4.0580 hc         1 2UI       0.039700
     53 H24        -26.0940    18.0230    -4.5220 hc         1 2UI       0.039700
     54 H25        -25.7550    16.2380    -6.2420 hc         1 2UI       0.041700
     55 H26        -25.6730    18.5970    -6.8990 hc         1 2UI       0.041700
     56 H27        -27.3960    18.6580    -7.2000 hc         1 2UI       0.041700
     57 H28        -25.3550    16.9470    -8.7080 hc         1 2UI       0.036700
     58 H29        -28.4010    17.1610    -9.1640 hc         1 2UI       0.039700
     59 H30        -27.3030    16.2090   -10.1340 hc         1 2UI       0.039700
     60 H31        -28.3860    14.7190    -8.5200 hc         1 2UI       0.038700
     61 H32        -26.6750    14.8030    -8.2190 hc         1 2UI       0.038700
     62 H33        -27.9840    14.6420    -4.7570 hc         1 2UI       0.033033
     63 H34        -28.4640    13.7230    -6.1820 hc         1 2UI       0.033033
     64 H35        -26.7620    14.0430    -5.8730 hc         1 2UI       0.033033
     65 H36        -29.2790    17.4120    -7.0780 hc         1 2UI       0.045700
     66 H37        -30.5390    14.6980    -6.4140 hc         1 2UI       0.038700
     67 H38        -30.4170    15.4410    -7.9990 hc         1 2UI       0.038700
     68 H39        -31.8890    17.2820    -7.3900 hc         1 2UI       0.039200
     69 H40        -32.6700    15.7580    -7.0180 hc         1 2UI       0.039200
     70 H41        -32.4820    15.9130    -3.2810 hc         1 2UI       0.032700
     71 H42        -33.1030    15.0470    -4.6780 hc         1 2UI       0.032700
     72 H43        -31.3840    14.9940    -4.3010 hc         1 2UI       0.032700
     73 H44        -25.7130    19.6000    -9.0570 hc         1 2UI       0.050200
     74 H45        -27.0920    19.0950    -9.9830 hc         1 2UI       0.050200
     75 H46        -25.3980    16.4700   -11.3260 hc         1 2UI       0.042033
     76 H47        -26.6080    17.5080   -12.1220 hc         1 2UI       0.042033
     77 H48        -24.9430    17.4440   -12.7260 hc         1 2UI       0.042033
     78 H49        -24.8530    20.7750   -11.0630 hc         1 2UI       0.042033
     79 H50        -24.4700    19.8730   -12.5410 hc         1 2UI       0.042033
     80 H51        -26.1620    20.1550   -12.0890 hc         1 2UI       0.042033
     81 H52        -23.8840    17.6480    -9.7900 ho         1 2UI       0.438000
     82 H54        -36.7800    18.2480    -4.7190 hc         1 2UI       0.035700
     83 C3         -35.7570    19.8990    -5.6930 c3         1 2UI      -0.114400
     84 H8         -37.2500    21.5960    -7.4020 hc         1 2UI       0.060700
     85 H13        -35.9110    19.5500    -6.7210 hc         1 2UI       0.052200
     86 O1         -35.9520    23.9100    -7.6770 oh         1 2UI      -0.675000
     87 H53        -34.7680    20.3700    -5.6640 hc         1 2UI       0.052200
@<TRIPOS>BOND
     1     1     2 1   
     2     1     4 1   
     3     1    25 1   
     4     1    32 1   
     5     2     3 1   
     6     2    33 1   
     7     2    34 1   
     8     3    11 1   
     9     3    35 1   
    10     3    36 1   
    11     4     8 1   
    12     4     9 1   
    13     4    38 1   
    14     5     6 1   
    15     5     7 1   
    16     5    39 1   
    17     5    84 1   
    18     6    40 1   
    19     6    41 1   
    20     6    86 1   
    21     7    10 1   
    22     7    42 1   
    23     7    83 1   
    24     8    43 1   
    25     8    82 1   
    26     8    83 1   
    27     9    44 1   
    28     9    45 1   
    29     9    46 1   
    30    10    47 1   
    31    11    12 1   
    32    11    25 1   
    33    11    48 1   
    34    12    13 1   
    35    12    22 1   
    36    12    49 1   
    37    13    14 1   
    38    13    50 1   
    39    13    51 1   
    40    14    15 1   
    41    14    52 1   
    42    14    53 1   
    43    15    16 1   
    44    15    20 1   
    45    15    54 1   
    46    16    17 1   
    47    16    55 1   
    48    16    56 1   
    49    17    18 1   
    50    17    27 1   
    51    17    57 1   
    52    18    19 1   
    53    18    58 1   
    54    18    59 1   
    55    19    20 1   
    56    19    60 1   
    57    19    61 1   
    58    20    21 1   
    59    20    22 1   
    60    21    62 1   
    61    21    63 1   
    62    21    64 1   
    63    22    23 1   
    64    22    65 1   
    65    23    24 1   
    66    23    66 1   
    67    23    67 1   
    68    24    25 1   
    69    24    68 1   
    70    24    69 1   
    71    25    26 1   
    72    26    70 1   
    73    26    71 1   
    74    26    72 1   
    75    27    28 1   
    76    27    73 1   
    77    27    74 1   
    78    28    29 1   
    79    28    30 1   
    80    28    31 1   
    81    29    75 1   
    82    29    76 1   
    83    29    77 1   
    84    30    78 1   
    85    30    79 1   
    86    30    80 1   
    87    31    81 1   
    88    37    86 1   
    89    83    85 1   
    90    83    87 1   
@<TRIPOS>SUBSTRUCTURE
     1 2UI         1 TEMP              0 ****  ****    0 ROOT
