@<TRIPOS>MOLECULE
2UI
   87    90     1     0     0
SMALL
abcg2


@<TRIPOS>ATOM
      1 C7         -33.2200    17.9950    -5.0720 c5         1 2UI      -0.055700
      2 C8         -32.7650    18.7130    -3.7690 c5         1 2UI      -0.077400
      3 C9         -31.2400    18.4850    -3.6390 c5         1 2UI      -0.070400
      4 C1         -34.6760    17.5080    -4.9930 c3         1 2UI      -0.046700
      5 C5         -36.9290    21.9450    -6.2950 c3         1 2UI      -0.073400
      6 C6         -35.6860    22.6850    -6.7540 c3         1 2UI       0.164600
      7 C4         -36.6940    20.8990    -5.2110 c3         1 2UI       0.172300
      8 C2         -35.6410    18.6530    -4.6180 c3         1 2UI      -0.074400
      9 C          -35.1550    16.8000    -6.2630 c3         1 2UI      -0.086100
     10 O          -36.2640    21.6020    -4.0290 oh         1 2UI      -0.672000
     11 C10        -30.8550    17.8250    -4.9640 c5         1 2UI      -0.063700
     12 C11        -29.5200    17.1000    -5.0680 c6         1 2UI      -0.044700
     13 C12        -28.3530    17.9960    -4.6490 c6         1 2UI      -0.069400
     14 C13        -27.0030    17.3130    -4.8580 c6         1 2UI      -0.068400
     15 C14        -26.8190    16.8050    -6.2930 c6         1 2UI      -0.049700
     16 C15        -26.5980    17.9720    -7.2650 c6         1 2UI      -0.069400
     17 C16        -26.3860    17.5320    -8.7150 c6         1 2UI      -0.058700
     18 C17        -27.5610    16.6540    -9.1520 c6         1 2UI      -0.071400
     19 C18        -27.7490    15.4750    -8.2030 c6         1 2UI      -0.069400
     20 C19        -27.9790    15.8650    -6.7270 c6         1 2UI      -0.031000
     21 C20        -27.9170    14.5630    -5.9100 c3         1 2UI      -0.084100
     22 C21        -29.3390    16.5950    -6.5200 c6         1 2UI      -0.045700
     23 C22        -30.5580    15.7820    -6.9840 c6         1 2UI      -0.071400
     24 C23        -31.8950    16.5070    -6.7820 c6         1 2UI      -0.061400
     25 C24        -32.0850    16.9620    -5.3310 c5         1 2UI      -0.041000
     26 C25        -32.2480    15.7470    -4.4040 c3         1 2UI      -0.078100
     27 C26        -26.1630    18.7430    -9.6370 c3         1 2UI      -0.099400
     28 C27        -25.0850    18.5960   -10.7240 c3         1 2UI       0.178000
     29 C28        -25.3280    17.4050   -11.6500 c3         1 2UI      -0.098600
     30 C29        -24.9990    19.8860   -11.5330 c3         1 2UI      -0.098600
     31 O2         -23.7850    18.4550   -10.1010 oh         1 2UI      -0.670000
     32 H1         -33.1560    18.7130    -5.8970 hc         1 2UI       0.044700
     33 H2         -33.0150    19.7740    -3.8030 hc         1 2UI       0.040200
     34 H3         -33.2940    18.2970    -2.9090 hc         1 2UI       0.040200
     35 H4         -31.0140    17.8210    -2.8010 hc         1 2UI       0.042700
     36 H5         -30.6960    19.4140    -3.4660 hc         1 2UI       0.042700
     37 H6         -35.3140    24.1530    -8.0030 ho         1 2UI       0.440000
     38 H7         -34.7360    16.7880    -4.1700 hc         1 2UI       0.046700
     39 H9         -37.6510    22.6760    -5.9200 hc         1 2UI       0.060700
     40 H10        -35.1810    23.1480    -5.9000 h1         1 2UI       0.027200
     41 H11        -34.9810    22.0000    -7.2340 h1         1 2UI       0.027200
     42 H12        -37.6590    20.4220    -4.9990 h1         1 2UI       0.031700
     43 H14        -35.3670    19.0310    -3.6300 hc         1 2UI       0.035700
     44 H15        -36.2300    16.6050    -6.2070 hc         1 2UI       0.033700
     45 H16        -34.9730    17.4030    -7.1550 hc         1 2UI       0.033700
     46 H17        -34.6540    15.8440    -6.4040 hc         1 2UI       0.033700
     47 H18        -36.1930    20.9670    -3.3060 ho         1 2UI       0.440000
     48 H19        -30.8290    18.6260    -5.7170 hc         1 2UI       0.041700
     49 H20        -29.5380    16.2390    -4.3920 hc         1 2UI       0.048700
     50 H21        -28.3970    18.9260    -5.2260 hc         1 2UI       0.038700
     51 H22        -28.4620    18.2790    -3.6000 hc         1 2UI       0.038700
     52 H23        -26.9150    16.4770    -4.1600 hc         1 2UI       0.039700
     53 H24        -26.1900    18.0050    -4.6140 hc         1 2UI       0.039700
     54 H25        -25.9040    16.1990    -6.3190 hc         1 2UI       0.041700
     55 H26        -25.7250    18.5410    -6.9300 hc         1 2UI       0.041700
     56 H27        -27.4430    18.6660    -7.2360 hc         1 2UI       0.041700
     57 H28        -25.4890    16.8980    -8.7260 hc         1 2UI       0.036700
     58 H29        -28.4670    17.2690    -9.1860 hc         1 2UI       0.039700
     59 H30        -27.4050    16.2840   -10.1670 hc         1 2UI       0.039700
     60 H31        -28.5610    14.8340    -8.5490 hc         1 2UI       0.038700
     61 H32        -26.8420    14.8600    -8.2410 hc         1 2UI       0.038700
     62 H33        -28.1280    14.7130    -4.8530 hc         1 2UI       0.033033
     63 H34        -28.6320    13.8300    -6.2890 hc         1 2UI       0.033033
     64 H35        -26.9200    14.1220    -5.9920 hc         1 2UI       0.033033
     65 H36        -29.3180    17.4960    -7.1420 hc         1 2UI       0.045700
     66 H37        -30.5850    14.8250    -6.4570 hc         1 2UI       0.038700
     67 H38        -30.4560    15.5410    -8.0440 hc         1 2UI       0.038700
     68 H39        -31.9300    17.3910    -7.4290 hc         1 2UI       0.039200
     69 H40        -32.7030    15.8490    -7.1030 hc         1 2UI       0.039200
     70 H41        -32.4110    16.0450    -3.3680 hc         1 2UI       0.032700
     71 H42        -33.1060    15.1470    -4.7130 hc         1 2UI       0.032700
     72 H43        -31.3730    15.0980    -4.4230 hc         1 2UI       0.032700
     73 H44        -25.8700    19.6070    -9.0330 hc         1 2UI       0.050200
     74 H45        -27.1090    19.0090   -10.1190 hc         1 2UI       0.050200
     75 H46        -25.3010    16.4640   -11.0970 hc         1 2UI       0.042033
     76 H47        -26.3000    17.4840   -12.1390 hc         1 2UI       0.042033
     77 H48        -24.5530    17.3710   -12.4190 hc         1 2UI       0.042033
     78 H49        -24.8020    20.7350   -10.8760 hc         1 2UI       0.042033
     79 H50        -24.1960    19.8200   -12.2690 hc         1 2UI       0.042033
     80 H51        -25.9380    20.0660   -12.0590 hc         1 2UI       0.042033
     81 H52        -23.7790    17.6280    -9.6020 ho         1 2UI       0.438000
     82 H54        -36.6460    18.2290    -4.5170 hc         1 2UI       0.035700
     83 C3         -35.6990    19.8110    -5.6140 c3         1 2UI      -0.114400
     84 H8         -37.3880    21.4500    -7.1550 hc         1 2UI       0.060700
     85 H13        -35.9900    19.4390    -6.5990 hc         1 2UI       0.052200
     86 O1         -36.1010    23.6910    -7.6900 oh         1 2UI      -0.675000
     87 H53        -34.7110    20.2640    -5.7240 hc         1 2UI       0.052200
@<TRIPOS>BOND
     1     1     2 1   
     2     1     4 1   
     3     1    25 1   
     4     1    32 1   
     5     2     3 1   
     6     2    33 1   
     7     2    34 1   
     8     3    11 1   
     9     3    35 1   
    10     3    36 1   
    11     4     8 1   
    12     4     9 1   
    13     4    38 1   
    14     5     6 1   
    15     5     7 1   
    16     5    39 1   
    17     5    84 1   
    18     6    40 1   
    19     6    41 1   
    20     6    86 1   
    21     7    10 1   
    22     7    42 1   
    23     7    83 1   
    24     8    43 1   
    25     8    82 1   
    26     8    83 1   
    27     9    44 1   
    28     9    45 1   
    29     9    46 1   
    30    10    47 1   
    31    11    12 1   
    32    11    25 1   
    33    11    48 1   
    34    12    13 1   
    35    12    22 1   
    36    12    49 1   
    37    13    14 1   
    38    13    50 1   
    39    13    51 1   
    40    14    15 1   
    41    14    52 1   
    42    14    53 1   
    43    15    16 1   
    44    15    20 1   
    45    15    54 1   
    46    16    17 1   
    47    16    55 1   
    48    16    56 1   
    49    17    18 1   
    50    17    27 1   
    51    17    57 1   
    52    18    19 1   
    53    18    58 1   
    54    18    59 1   
    55    19    20 1   
    56    19    60 1   
    57    19    61 1   
    58    20    21 1   
    59    20    22 1   
    60    21    62 1   
    61    21    63 1   
    62    21    64 1   
    63    22    23 1   
    64    22    65 1   
    65    23    24 1   
    66    23    66 1   
    67    23    67 1   
    68    24    25 1   
    69    24    68 1   
    70    24    69 1   
    71    25    26 1   
    72    26    70 1   
    73    26    71 1   
    74    26    72 1   
    75    27    28 1   
    76    27    73 1   
    77    27    74 1   
    78    28    29 1   
    79    28    30 1   
    80    28    31 1   
    81    29    75 1   
    82    29    76 1   
    83    29    77 1   
    84    30    78 1   
    85    30    79 1   
    86    30    80 1   
    87    31    81 1   
    88    37    86 1   
    89    83    85 1   
    90    83    87 1   
@<TRIPOS>SUBSTRUCTURE
     1 2UI         1 TEMP              0 ****  ****    0 ROOT
