@<TRIPOS>MOLECULE
2UK
   64    66     1     0     0
SMALL
bcc


@<TRIPOS>ATOM
      1 OAB         11.7680     2.3390     0.8440 o          1 2UK      -0.653100
      2 CBB         11.4170     2.2360    -0.3250 c          1 2UK       0.580100
      3 CAN         12.2970     2.6780    -1.4760 c3         1 2UK      -0.139400
      4 CAA         13.7690     2.3730    -1.2360 c3         1 2UK      -0.073100
      5 NAU         10.2170     1.7480    -0.6720 ns         1 2UK      -0.577900
      6 CAP          9.2380     1.3010     0.2960 c3         1 2UK       0.113000
      7 CAO          7.9150     1.0080    -0.3920 c3         1 2UK      -0.115400
      8 CAQ          6.8740     0.5290     0.6080 c3         1 2UK       0.246800
      9 N2           5.6450     0.1950    -0.0770 nu         1 2UK      -0.874200
     10 C2           4.4430     0.1970     0.5180 cc         1 2UK       0.887100
     11 N3           3.4040    -0.2640    -0.2470 na         1 2UK      -0.713600
     12 N1           4.3040     0.6360     1.7390 nd         1 2UK      -0.821100
     13 C6           3.0910     0.6690     2.3890 c          1 2UK       0.663000
     14 O6           3.0040     1.0870     3.5380 o          1 2UK      -0.560100
     15 C5           1.9710     0.1780     1.6200 cc         1 2UK       0.197800
     16 C4           2.1810    -0.2590     0.3410 cd         1 2UK      -0.015000
     17 N7           0.6420     0.0500     1.9320 nc         1 2UK      -0.593000
     18 C8           0.0790    -0.4450     0.8710 cd         1 2UK       0.492400
     19 N9           0.9830    -0.6440    -0.1520 na         1 2UK      -0.233900
     20 C1           0.7370    -1.2010    -1.4700 c5         1 2UK       0.275800
     21 O4          -0.5800    -0.9640    -1.8350 os         1 2UK      -0.337600
     22 C7           0.9460    -2.7150    -1.5220 c5         1 2UK       0.034100
     23 O2           2.2920    -2.9880    -1.7800 oh         1 2UK      -0.619800
     24 C3          -0.0270    -3.1130    -2.6340 c5         1 2UK       0.075100
     25 O3           0.5130    -2.8290    -3.8980 oh         1 2UK      -0.592800
     26 C10         -1.1800    -2.1550    -2.3690 c5         1 2UK       0.127100
     27 C9          -2.2070    -2.7080    -1.4010 c3         1 2UK       0.204400
     28 O5          -3.2000    -1.7340    -1.2080 os         1 2UK      -0.519200
     29 PA          -3.9900    -1.7140     0.2490 p5         1 2UK       1.448800
     30 O1A         -2.9800    -1.4240     1.3260 o          1 2UK      -0.869000
     31 O2A         -4.8370    -2.9450     0.3560 o          1 2UK      -0.869000
     32 O3A         -4.8450    -0.3900    -0.1040 os         1 2UK      -0.694800
     33 PB          -6.3560    -0.0140     0.5630 p5         1 2UK       1.437700
     34 O1B         -6.3340    -0.4540     1.9970 o          1 2UK      -0.886000
     35 O2B         -7.3660    -0.5970    -0.3910 o          1 2UK      -0.886000
     36 N3B         -6.2410     1.6550     0.4530 n7         1 2UK      -0.901400
     37 PG          -7.1810     2.7230     1.5250 p5         1 2UK       1.280800
     38 O1G         -6.3460     2.8680     2.7950 o          1 2UK      -0.903167
     39 O2G         -7.2610     3.9990     0.6820 o          1 2UK      -0.903167
     40 O3G         -8.5300     2.0380     1.7450 o          1 2UK      -0.903167
     41 H1          11.9620     2.2260    -2.4110 hc         1 2UK       0.034700
     42 H2          12.1590     3.7570    -1.5950 hc         1 2UK       0.034700
     43 H3          14.3700     2.7280    -2.0720 hc         1 2UK       0.028367
     44 H4          14.1330     2.8600    -0.3330 hc         1 2UK       0.028367
     45 H5          13.9420     1.3010    -1.1350 hc         1 2UK       0.028367
     46 H6           9.9990     1.6410    -1.6490 hn         1 2UK       0.296500
     47 H7           9.5950     0.4040     0.8110 h1         1 2UK       0.048200
     48 H8           9.0980     2.0710     1.0590 h1         1 2UK       0.048200
     49 H9           7.5510     1.9070    -0.8950 hc         1 2UK       0.040700
     50 H10          8.0670     0.2440    -1.1610 hc         1 2UK       0.040700
     51 H11          7.2550    -0.3350     1.1620 h1         1 2UK       0.060200
     52 H12          6.6640     1.3100     1.3370 h1         1 2UK       0.060200
     53 H13          5.7360    -0.2820    -0.9610 hn         1 2UK       0.414800
     54 H14          3.5660    -0.6870    -1.1500 hn         1 2UK       0.439800
     55 H15         -0.9720    -0.6910     0.7730 h5         1 2UK       0.178100
     56 H16          1.4320    -0.7030    -2.1590 h2         1 2UK       0.045700
     57 H17          0.6170    -3.1620    -0.5760 h1         1 2UK       0.088700
     58 H18          2.5110    -3.8620    -1.4430 ho         1 2UK       0.401000
     59 H19         -0.3400    -4.1620    -2.5490 h1         1 2UK       0.050700
     60 H20          1.4080    -3.1860    -3.9260 ho         1 2UK       0.386000
     61 H21         -1.6810    -1.8850    -3.3040 h1         1 2UK       0.099700
     62 H22         -2.6290    -3.6240    -1.8320 h1         1 2UK       0.000700
     63 H23         -1.7210    -2.9920    -0.4590 h1         1 2UK       0.000700
     64 H26         -6.3100     1.9800    -0.5040 hn         1 2UK       0.331800
@<TRIPOS>BOND
     1     1     2 2   
     2     2     3 1   
     3     2     5 1   
     4     3     4 1   
     5     3    41 1   
     6     3    42 1   
     7     4    43 1   
     8     4    44 1   
     9     4    45 1   
    10     5     6 1   
    11     5    46 1   
    12     6     7 1   
    13     6    47 1   
    14     6    48 1   
    15     7     8 1   
    16     7    49 1   
    17     7    50 1   
    18     8     9 1   
    19     8    51 1   
    20     8    52 1   
    21     9    10 1   
    22     9    53 1   
    23    10    11 1   
    24    10    12 2   
    25    11    16 1   
    26    11    54 1   
    27    12    13 1   
    28    13    14 2   
    29    13    15 1   
    30    15    16 2   
    31    15    17 1   
    32    16    19 1   
    33    17    18 2   
    34    18    19 1   
    35    18    55 1   
    36    19    20 1   
    37    20    21 1   
    38    20    22 1   
    39    20    56 1   
    40    21    26 1   
    41    22    23 1   
    42    22    24 1   
    43    22    57 1   
    44    23    58 1   
    45    24    25 1   
    46    24    26 1   
    47    24    59 1   
    48    25    60 1   
    49    26    27 1   
    50    26    61 1   
    51    27    28 1   
    52    27    62 1   
    53    27    63 1   
    54    28    29 1   
    55    29    30 1   
    56    29    31 1   
    57    29    32 1   
    58    32    33 1   
    59    33    34 1   
    60    33    35 1   
    61    33    36 1   
    62    36    37 1   
    63    36    64 1   
    64    37    38 1   
    65    37    39 1   
    66    37    40 1   
@<TRIPOS>SUBSTRUCTURE
     1 2UK         1 TEMP              0 ****  ****    0 ROOT
