@<TRIPOS>MOLECULE
2UK
   64    66     1     0     0
SMALL
No Charge or Current Charge


@<TRIPOS>ATOM
      1 OAB         11.9300     1.6580     0.3870 o          1 2UK      -0.653100
      2 CBB         11.3700     1.5560    -0.6950 c          1 2UK       0.513100
      3 CAN         12.1160     1.6680    -2.0320 c3         1 2UK      -0.139400
      4 CAA         12.9360     0.3950    -2.3310 c3         1 2UK      -0.073100
      5 NAU         10.0110     1.3710    -0.8010 ns         1 2UK      -0.510900
      6 CAP          9.1020     1.2510     0.3380 c3         1 2UK       0.113000
      7 CAO          7.6540     0.9960    -0.1170 c3         1 2UK      -0.115400
      8 CAQ          6.6810     0.8660     1.0680 c3         1 2UK       0.246800
      9 N2           5.3200     0.6190     0.5820 nu         1 2UK      -0.929400
     10 C2           4.2290     0.4950     1.3320 cc         1 2UK       0.887100
     11 N3           3.0410     0.3530     0.6950 na         1 2UK      -0.907200
     12 N1           4.2760     0.5010     2.6410 nd         1 2UK      -0.821100
     13 C6           3.1350     0.3730     3.4570 c          1 2UK       0.663000
     14 O6           3.2690     0.3970     4.6740 o          1 2UK      -0.560100
     15 C5           1.8400     0.2200     2.7510 cc         1 2UK       0.132500
     16 C4           1.8770     0.2100     1.4190 cd         1 2UK       0.138000
     17 N7           0.5300     0.0920     3.1640 nc         1 2UK      -0.593000
     18 C8          -0.1920     0.0120     2.0230 cd         1 2UK       0.492400
     19 N9           0.6310     0.0840     0.8900 na         1 2UK      -0.212500
     20 C1           0.2380     0.1090    -0.5160 c5         1 2UK       0.328300
     21 O4          -1.1430    -0.3030    -0.6590 os         1 2UK      -0.384000
     22 C7           1.0720    -0.8070    -1.4860 c5         1 2UK       0.057300
     23 O2           2.2230    -0.1600    -2.0800 oh         1 2UK      -0.742000
     24 C3          -0.0080    -1.1710    -2.5430 c5         1 2UK       0.098300
     25 O3          -0.2080    -0.0860    -3.4600 oh         1 2UK      -0.715000
     26 C10         -1.2270    -1.4130    -1.5930 c5         1 2UK       0.150300
     27 C9          -1.1510    -2.7780    -0.8320 c3         1 2UK       0.227600
     28 O5          -2.4540    -3.3260    -0.5650 os         1 2UK      -0.542400
     29 PA          -3.5050    -2.6440     0.4550 p5         1 2UK       1.448800
     30 O1A         -2.7780    -1.9980     1.5890 o          1 2UK      -0.869000
     31 O2A         -4.4440    -3.7050     0.9290 o          1 2UK      -0.869000
     32 O3A         -4.1410    -1.6160    -0.5610 os         1 2UK      -0.694800
     33 PB          -5.5810    -1.1410    -0.1430 p5         1 2UK       1.437700
     34 O1B         -5.7030    -0.6180     1.2490 o          1 2UK      -0.886000
     35 O2B         -6.6440    -2.0780    -0.5930 o          1 2UK      -0.886000
     36 N3B         -5.6640    -0.0040    -1.2530 n7         1 2UK      -0.956600
     37 PG          -6.5410     1.3070    -1.0540 p5         1 2UK       1.280800
     38 O1G         -5.8140     2.2660    -0.1830 o          1 2UK      -0.903167
     39 O2G         -6.6650     1.8490    -2.4290 o          1 2UK      -0.903167
     40 O3G         -7.8830     0.9480    -0.5360 o          1 2UK      -0.903167
     41 H1          11.4040     1.8130    -2.8530 hc         1 2UK       0.034700
     42 H2          12.8090     2.5170    -1.9870 hc         1 2UK       0.034700
     43 H3          13.4580     0.4920    -3.2900 hc         1 2UK       0.028367
     44 H4          13.6840     0.2210    -1.5480 hc         1 2UK       0.028367
     45 H5          12.2800    -0.4830    -2.3830 hc         1 2UK       0.028367
     46 H6           9.6270     1.3080    -1.7370 hn         1 2UK       0.296500
     47 H7           9.4400     0.4230     0.9750 h1         1 2UK       0.048200
     48 H8           9.1470     2.1790     0.9250 h1         1 2UK       0.048200
     49 H9           7.3300     1.8200    -0.7650 hc         1 2UK       0.040700
     50 H10          7.6220     0.0760    -0.7150 hc         1 2UK       0.040700
     51 H11          7.0050     0.0390     1.7160 h1         1 2UK       0.060200
     52 H12          6.7080     1.7900     1.6640 h1         1 2UK       0.060200
     53 H13          5.1340     0.7040    -0.4080 hn         1 2UK       0.470000
     54 H14          3.0160     0.3250    -0.3210 hn         1 2UK       0.495000
     55 H15         -1.2710    -0.0670     1.9440 h5         1 2UK       0.178100
     56 H16          0.3220     1.1560    -0.8290 h2         1 2UK       0.045700
     57 H17          1.3900    -1.7110    -0.9460 h1         1 2UK       0.088700
     58 H18          2.6660    -0.8210    -2.6680 ho         1 2UK       0.500000
     59 H19          0.2600    -2.0850    -3.0920 h1         1 2UK       0.050700
     60 H20          0.6290     0.4360    -3.4130 ho         1 2UK       0.485000
     61 H21         -2.1700    -1.3630    -2.1510 h1         1 2UK       0.099700
     62 H22         -0.5970    -3.4910    -1.4550 h1         1 2UK       0.000700
     63 H23         -0.5830    -2.6590     0.1000 h1         1 2UK       0.000700
     64 H26         -6.3640    -0.5560    -1.7160 hn         1 2UK       0.387000
@<TRIPOS>BOND
     1     1     2 2   
     2     2     3 1   
     3     2     5 1   
     4     3     4 1   
     5     3    41 1   
     6     3    42 1   
     7     4    43 1   
     8     4    44 1   
     9     4    45 1   
    10     5     6 1   
    11     5    46 1   
    12     6     7 1   
    13     6    47 1   
    14     6    48 1   
    15     7     8 1   
    16     7    49 1   
    17     7    50 1   
    18     8     9 1   
    19     8    51 1   
    20     8    52 1   
    21     9    10 1   
    22     9    53 1   
    23    10    11 1   
    24    10    12 2   
    25    11    16 1   
    26    11    54 1   
    27    12    13 1   
    28    13    14 2   
    29    13    15 1   
    30    15    16 2   
    31    15    17 1   
    32    16    19 1   
    33    17    18 2   
    34    18    19 1   
    35    18    55 1   
    36    19    20 1   
    37    20    21 1   
    38    20    22 1   
    39    20    56 1   
    40    21    26 1   
    41    22    23 1   
    42    22    24 1   
    43    22    57 1   
    44    23    58 1   
    45    24    25 1   
    46    24    26 1   
    47    24    59 1   
    48    25    60 1   
    49    26    27 1   
    50    26    61 1   
    51    27    28 1   
    52    27    62 1   
    53    27    63 1   
    54    28    29 1   
    55    29    30 1   
    56    29    31 1   
    57    29    32 1   
    58    32    33 1   
    59    33    34 1   
    60    33    35 1   
    61    33    36 1   
    62    36    37 1   
    63    36    64 1   
    64    37    38 1   
    65    37    39 1   
    66    37    40 1   
@<TRIPOS>SUBSTRUCTURE
     1 2UK         1 TEMP              0 ****  ****    0 ROOT
