@<TRIPOS>MOLECULE
2UN
   48    49     1     0     0
SMALL
No Charge or Current Charge


@<TRIPOS>ATOM
      1 O7           5.7400     0.1580    -1.1740 o          1 2UN      -0.696867
      2 S1           5.9280     0.1100     0.2770 s6         1 2UN       1.365700
      3 O5           6.8830    -0.8840     0.7650 o          1 2UN      -0.696867
      4 O6           5.9160     1.3950     0.9790 o          1 2UN      -0.696867
      5 N1           4.5410    -0.5770     0.7940 nu         1 2UN      -0.887100
      6 C5           3.3050    -0.4780     0.1790 ca         1 2UN       0.374000
      7 C4           2.5460    -1.6420    -0.0150 ca         1 2UN      -0.176000
      8 C2           2.7710     0.7630    -0.2130 ca         1 2UN      -0.176000
      9 C6           1.5020     0.8360    -0.8110 ca         1 2UN      -0.064500
     10 C3           0.7420    -0.3340    -1.0090 ca         1 2UN      -0.180300
     11 C1           1.2760    -1.5750    -0.6140 ca         1 2UN      -0.064500
     12 C19         -0.6410    -0.2570    -1.6550 c3         1 2UN       0.005900
     13 C7          -1.8010    -0.0660    -0.6220 c3         1 2UN      -0.152000
     14 C8          -1.5830     1.2760     0.1260 c          1 2UN       0.607100
     15 O2          -1.4410     1.4150     1.3330 o          1 2UN      -0.442000
     16 O1          -1.5760     2.3400    -0.7470 os         1 2UN      -0.452600
     17 C17         -1.3840     3.6610    -0.2110 c3         1 2UN       0.153400
     18 C9          -1.8230    -1.2910     0.3300 c          1 2UN       0.607100
     19 O4          -2.0260    -2.4610    -0.3640 os         1 2UN      -0.452600
     20 C18         -2.0730    -3.6950     0.3750 c3         1 2UN       0.153400
     21 O3          -1.6900    -1.2620     1.5460 o          1 2UN      -0.442000
     22 C10         -3.1660     0.0010    -1.3880 c3         1 2UN      -0.021100
     23 C11         -4.3720     0.1870    -0.4690 ca         1 2UN      -0.082300
     24 C13         -5.0520    -0.9330     0.0520 ca         1 2UN      -0.097500
     25 C16         -6.1570    -0.7610     0.9020 ca         1 2UN      -0.111000
     26 C12         -6.5960     0.5310     1.2340 ca         1 2UN      -0.109000
     27 C15         -5.9310     1.6520     0.7100 ca         1 2UN      -0.111000
     28 C14         -4.8260     1.4810    -0.1400 ca         1 2UN      -0.097500
     29 HN1          4.8710    -1.5130     0.9490 hn         1 2UN       0.462000
     30 H4           2.9400    -2.6060     0.2930 ha         1 2UN       0.124000
     31 H2           3.3380     1.6740    -0.0530 ha         1 2UN       0.124000
     32 H6           1.1110     1.8030    -1.1170 ha         1 2UN       0.092000
     33 H1           0.7090    -2.4900    -0.7660 ha         1 2UN       0.092000
     34 H191        -0.8180    -1.1630    -2.2480 hc         1 2UN       0.052200
     35 H192        -0.6580     0.5610    -2.3860 hc         1 2UN       0.052200
     36 H171        -1.4000     4.4060    -1.0170 h1         1 2UN       0.045867
     37 H172        -2.1800     3.9140     0.5020 h1         1 2UN       0.045867
     38 H173        -0.4170     3.7380     0.3030 h1         1 2UN       0.045867
     39 H181        -2.2390    -4.5400    -0.3040 h1         1 2UN       0.045867
     40 H182        -1.1290    -3.8670     0.9090 h1         1 2UN       0.045867
     41 H183        -2.8910    -3.6810     1.1070 h1         1 2UN       0.045867
     42 H101        -3.1390     0.8150    -2.1240 hc         1 2UN       0.063200
     43 H102        -3.3000    -0.9090    -1.9870 hc         1 2UN       0.063200
     44 H13         -4.7260    -1.9390    -0.2030 ha         1 2UN       0.114000
     45 H16         -6.6750    -1.6310     1.3030 ha         1 2UN       0.107000
     46 H12         -7.4520     0.6630     1.8920 ha         1 2UN       0.106000
     47 H15         -6.2730     2.6530     0.9620 ha         1 2UN       0.107000
     48 H14         -4.3230     2.3560    -0.5440 ha         1 2UN       0.114000
@<TRIPOS>BOND
     1     1     2 1   
     2     2     3 1   
     3     2     4 1   
     4     2     5 1   
     5     5     6 1   
     6     5    29 1   
     7     6     7 ar  
     8     6     8 ar  
     9     7    11 ar  
    10     7    30 1   
    11     8     9 ar  
    12     8    31 1   
    13     9    10 ar  
    14     9    32 1   
    15    10    11 ar  
    16    10    12 1   
    17    11    33 1   
    18    12    13 1   
    19    12    34 1   
    20    12    35 1   
    21    13    14 1   
    22    13    18 1   
    23    13    22 1   
    24    14    15 2   
    25    14    16 1   
    26    16    17 1   
    27    17    36 1   
    28    17    37 1   
    29    17    38 1   
    30    18    19 1   
    31    18    21 2   
    32    19    20 1   
    33    20    39 1   
    34    20    40 1   
    35    20    41 1   
    36    22    23 1   
    37    22    42 1   
    38    22    43 1   
    39    23    24 ar  
    40    23    28 ar  
    41    24    25 ar  
    42    24    44 1   
    43    25    26 ar  
    44    25    45 1   
    45    26    27 ar  
    46    26    46 1   
    47    27    28 ar  
    48    27    47 1   
    49    28    48 1   
@<TRIPOS>SUBSTRUCTURE
     1 2UN         1 TEMP              0 ****  ****    0 ROOT
