@<TRIPOS>MOLECULE
2UN
   48    49     1     0     0
SMALL
abcg2


@<TRIPOS>ATOM
      1 O7           5.8890     0.6640    -0.9590 o          1 2UN      -0.696867
      2 S1           5.8500     0.2130     0.4370 s6         1 2UN       1.365700
      3 O5           6.9970    -0.6050     0.8410 o          1 2UN      -0.696867
      4 O6           5.5110     1.2870     1.3780 o          1 2UN      -0.696867
      5 N1           4.5670    -0.9070     0.5700 nu         1 2UN      -0.887100
      6 C5           3.3140    -0.6920     0.0070 ca         1 2UN       0.374000
      7 C4           2.5660    -1.7920    -0.4210 ca         1 2UN      -0.176000
      8 C2           2.7460     0.5790    -0.1200 ca         1 2UN      -0.176000
      9 C6           1.4770     0.7270    -0.6570 ca         1 2UN      -0.064500
     10 C3           0.7180    -0.3640    -1.0710 ca         1 2UN      -0.180300
     11 C1           1.2940    -1.6260    -0.9420 ca         1 2UN      -0.064500
     12 C19         -0.6670    -0.2100    -1.6350 c3         1 2UN       0.005900
     13 C7          -1.8050    -0.1000    -0.5810 c3         1 2UN      -0.152000
     14 C8          -1.7560     1.2040     0.2090 c          1 2UN       0.607100
     15 O2          -2.0030     1.3250     1.3780 o          1 2UN      -0.442000
     16 O1          -1.5050     2.2320    -0.5900 os         1 2UN      -0.452600
     17 C17         -1.5500     3.5390    -0.0170 c3         1 2UN       0.153400
     18 C9          -1.6400    -1.2850     0.3650 c          1 2UN       0.607100
     19 O4          -2.0830    -2.4050    -0.1900 os         1 2UN      -0.452600
     20 C18         -1.8840    -3.6200     0.5360 c3         1 2UN       0.153400
     21 O3          -1.0960    -1.2530     1.4350 o          1 2UN      -0.442000
     22 C10         -3.1600    -0.1060    -1.3440 c3         1 2UN      -0.021100
     23 C11         -4.3650     0.1910    -0.4940 ca         1 2UN      -0.082300
     24 C13         -4.9830    -0.7960     0.2720 ca         1 2UN      -0.097500
     25 C16         -6.0770    -0.4930     1.0710 ca         1 2UN      -0.111000
     26 C12         -6.5760     0.8030     1.1140 ca         1 2UN      -0.109000
     27 C15         -5.9770     1.7920     0.3460 ca         1 2UN      -0.111000
     28 C14         -4.8820     1.4850    -0.4500 ca         1 2UN      -0.097500
     29 HN1          4.8990    -1.8590     0.4840 hn         1 2UN       0.462000
     30 H4           2.9860    -2.7880    -0.3470 ha         1 2UN       0.124000
     31 H2           3.2800     1.4600     0.2040 ha         1 2UN       0.124000
     32 H6           1.0840     1.7310    -0.7620 ha         1 2UN       0.092000
     33 H1           0.7510    -2.5030    -1.2740 ha         1 2UN       0.092000
     34 H191        -0.8940    -1.0710    -2.2690 hc         1 2UN       0.052200
     35 H192        -0.7240     0.6640    -2.2840 hc         1 2UN       0.052200
     36 H171        -1.3210     4.2250    -0.8270 h1         1 2UN       0.045867
     37 H172        -2.5400     3.7620     0.3800 h1         1 2UN       0.045867
     38 H173        -0.8100     3.6530     0.7750 h1         1 2UN       0.045867
     39 H181        -2.3070    -4.4070    -0.0810 h1         1 2UN       0.045867
     40 H182        -0.8240    -3.8140     0.6970 h1         1 2UN       0.045867
     41 H183        -2.3960    -3.5960     1.4970 h1         1 2UN       0.045867
     42 H101        -3.0870     0.6420    -2.1370 hc         1 2UN       0.063200
     43 H102        -3.2680    -1.0680    -1.8460 hc         1 2UN       0.063200
     44 H13         -4.6220    -1.8150     0.2380 ha         1 2UN       0.114000
     45 H16         -6.5440    -1.2720     1.6590 ha         1 2UN       0.107000
     46 H12         -7.4310     1.0370     1.7350 ha         1 2UN       0.106000
     47 H15         -6.3620     2.8030     0.3640 ha         1 2UN       0.107000
     48 H14         -4.4290     2.2620    -1.0550 ha         1 2UN       0.114000
@<TRIPOS>BOND
     1     1     2 1   
     2     2     3 1   
     3     2     4 1   
     4     2     5 1   
     5     5     6 1   
     6     5    29 1   
     7     6     7 ar  
     8     6     8 ar  
     9     7    11 ar  
    10     7    30 1   
    11     8     9 ar  
    12     8    31 1   
    13     9    10 ar  
    14     9    32 1   
    15    10    11 ar  
    16    10    12 1   
    17    11    33 1   
    18    12    13 1   
    19    12    34 1   
    20    12    35 1   
    21    13    14 1   
    22    13    18 1   
    23    13    22 1   
    24    14    15 2   
    25    14    16 1   
    26    16    17 1   
    27    17    36 1   
    28    17    37 1   
    29    17    38 1   
    30    18    19 1   
    31    18    21 2   
    32    19    20 1   
    33    20    39 1   
    34    20    40 1   
    35    20    41 1   
    36    22    23 1   
    37    22    42 1   
    38    22    43 1   
    39    23    24 ar  
    40    23    28 ar  
    41    24    25 ar  
    42    24    44 1   
    43    25    26 ar  
    44    25    45 1   
    45    26    27 ar  
    46    26    46 1   
    47    27    28 ar  
    48    27    47 1   
    49    28    48 1   
@<TRIPOS>SUBSTRUCTURE
     1 2UN         1 TEMP              0 ****  ****    0 ROOT
