@<TRIPOS>MOLECULE
2UO
   62    64     1     0     0
SMALL
No Charge or Current Charge


@<TRIPOS>ATOM
      1 C1          -6.6660     3.9490   -12.8470 c6         1 2UO       0.180300
      2 C2          -8.0980     4.1250   -13.4100 c6         1 2UO      -0.094400
      3 C3          -8.1470     5.2370   -14.4820 c6         1 2UO      -0.035200
      4 C4          -6.9790     5.1580   -15.4540 c2         1 2UO      -0.199200
      5 C24         -5.8530     4.4410   -15.2300 ce         1 2UO      -0.080200
      6 C5          -4.7400     4.4330   -16.1930 ce         1 2UO      -0.177000
      7 C6          -3.5610     3.8140   -15.9720 c2         1 2UO      -0.209200
      8 C7          -3.2540     3.0400   -14.7000 c6         1 2UO      -0.028500
      9 C20         -3.3420     1.5200   -15.0220 c3         1 2UO      -0.085100
     10 C8          -4.1730     3.5150   -13.5240 c6         1 2UO      -0.044700
     11 C9          -5.6760     3.5420   -13.9810 c6         1 2UO      -0.013500
     12 C10         -3.9320     2.7280   -12.1870 c3         1 2UO      -0.070400
     13 C11         -2.4810     2.7660   -11.6450 c3         1 2UO      -0.076400
     14 C12         -2.3130     2.1670   -10.2210 c6         1 2UO       0.198300
     15 C13         -0.8800     2.3340    -9.6750 c6         1 2UO      -0.107400
     16 C14         -0.7330     1.6100    -8.3260 c6         1 2UO       0.176300
     17 O3          -1.5740     2.2100    -7.3420 oh         1 2UO      -0.665000
     18 C15         -1.1140     0.1360    -8.5020 c6         1 2UO      -0.226400
     19 C22         -2.4290    -0.0910    -9.2570 c          1 2UO       0.677100
     20 O2          -3.1070    -1.0890    -9.0640 o          1 2UO      -0.511000
     21 O1          -2.7090     0.7800   -10.2800 os         1 2UO      -0.461100
     22 O4          -6.2100     5.1470   -12.1830 os         1 2UO      -0.453100
     23 C23         -6.6270     5.4590   -10.9190 c          1 2UO       0.588100
     24 O5          -7.3210     4.7220   -10.2300 o          1 2UO      -0.494000
     25 C16         -5.8320     6.6580   -10.3640 c3         1 2UO      -0.117700
     26 C19         -6.6640     7.5060    -9.3700 c3         1 2UO      -0.080100
     27 C17         -4.4480     6.2190    -9.8020 c3         1 2UO      -0.069400
     28 C18         -4.4890     5.2430    -8.6050 c3         1 2UO      -0.094100
     29 H1          -6.6870     3.1300   -12.1130 h1         1 2UO       0.070700
     30 H2          -8.8070     4.3460   -12.6020 hc         1 2UO       0.057200
     31 H3          -8.4260     3.1760   -13.8550 hc         1 2UO       0.057200
     32 H4          -8.1310     6.2190   -13.9890 hc         1 2UO       0.051200
     33 H5          -9.0970     5.1830   -15.0310 hc         1 2UO       0.051200
     34 H6          -7.0760     5.7640   -16.3560 ha         1 2UO       0.172000
     35 H7          -4.8950     4.9810   -17.1240 ha         1 2UO       0.173000
     36 H8          -2.7660     3.8520   -16.7200 ha         1 2UO       0.173000
     37 H9          -2.2060     3.2390   -14.4350 hc         1 2UO       0.046700
     38 H10         -3.0480     0.9020   -14.1660 hc         1 2UO       0.038033
     39 H11         -4.3540     1.2220   -15.3220 hc         1 2UO       0.038033
     40 H12         -2.6690     1.2590   -15.8480 hc         1 2UO       0.038033
     41 H13         -3.8870     4.5530   -13.3000 hc         1 2UO       0.057700
     42 H14         -5.9560     2.5240   -14.2800 hc         1 2UO       0.065700
     43 H15         -4.5640     3.1450   -11.3950 hc         1 2UO       0.053700
     44 H16         -4.2510     1.6850   -12.2990 hc         1 2UO       0.053700
     45 H17         -1.8170     2.2380   -12.3390 hc         1 2UO       0.050200
     46 H18         -2.1460     3.8110   -11.6320 hc         1 2UO       0.050200
     47 H19         -3.0040     2.6900    -9.5430 h1         1 2UO       0.076700
     48 H20         -0.1540     1.9320   -10.3950 hc         1 2UO       0.065700
     49 H21         -0.6440     3.4000    -9.5550 hc         1 2UO       0.065700
     50 H22          0.3180     1.6730    -8.0050 h1         1 2UO       0.046700
     51 H23         -1.2710     1.8770    -6.4680 ho         1 2UO       0.449000
     52 H24         -1.1140    -0.4330    -7.5640 hc         1 2UO       0.080700
     53 H25         -0.3400    -0.3130    -9.1370 hc         1 2UO       0.080700
     54 H28         -5.5900     7.2880   -11.2290 hc         1 2UO       0.071700
     55 H29         -6.0890     8.3740    -9.0250 hc         1 2UO       0.044033
     56 H30         -7.5770     7.8750    -9.8540 hc         1 2UO       0.044033
     57 H31         -6.9600     6.9180    -8.4940 hc         1 2UO       0.044033
     58 H32         -3.8710     5.7510   -10.6100 hc         1 2UO       0.045700
     59 H33         -3.8860     7.1130    -9.5050 hc         1 2UO       0.045700
     60 H34         -3.4700     5.0070    -8.2770 hc         1 2UO       0.037700
     61 H35         -5.0240     5.6820    -7.7550 hc         1 2UO       0.037700
     62 H36         -4.9790     4.3020    -8.8780 hc         1 2UO       0.037700
@<TRIPOS>BOND
     1     1     2 1   
     2     1    11 1   
     3     1    22 1   
     4     1    29 1   
     5     2     3 1   
     6     2    30 1   
     7     2    31 1   
     8     3     4 1   
     9     3    32 1   
    10     3    33 1   
    11     4     5 2   
    12     4    34 1   
    13     5     6 1   
    14     5    11 1   
    15     6     7 2   
    16     6    35 1   
    17     7     8 1   
    18     7    36 1   
    19     8     9 1   
    20     8    10 1   
    21     8    37 1   
    22     9    38 1   
    23     9    39 1   
    24     9    40 1   
    25    10    11 1   
    26    10    12 1   
    27    10    41 1   
    28    11    42 1   
    29    12    13 1   
    30    12    43 1   
    31    12    44 1   
    32    13    14 1   
    33    13    45 1   
    34    13    46 1   
    35    14    15 1   
    36    14    21 1   
    37    14    47 1   
    38    15    16 1   
    39    15    48 1   
    40    15    49 1   
    41    16    17 1   
    42    16    18 1   
    43    16    50 1   
    44    17    51 1   
    45    18    19 1   
    46    18    52 1   
    47    18    53 1   
    48    19    20 2   
    49    19    21 1   
    50    22    23 1   
    51    23    24 2   
    52    23    25 1   
    53    25    26 1   
    54    25    27 1   
    55    25    54 1   
    56    26    55 1   
    57    26    56 1   
    58    26    57 1   
    59    27    28 1   
    60    27    58 1   
    61    27    59 1   
    62    28    60 1   
    63    28    61 1   
    64    28    62 1   
@<TRIPOS>SUBSTRUCTURE
     1 2UO         1 TEMP              0 ****  ****    0 ROOT
