@<TRIPOS>MOLECULE
2UO
   62    64     1     0     0
SMALL
abcg2


@<TRIPOS>ATOM
      1 C1          -6.6910     3.9180   -12.8070 c6         1 2UO       0.180300
      2 C2          -8.0850     4.1020   -13.3860 c6         1 2UO      -0.094400
      3 C3          -8.1140     5.2010   -14.4470 c6         1 2UO      -0.035200
      4 C4          -6.9250     5.1420   -15.3540 c2         1 2UO      -0.199200
      5 C24         -5.8250     4.4140   -15.1160 ce         1 2UO      -0.080200
      6 C5          -4.7050     4.4190   -16.0460 ce         1 2UO      -0.177000
      7 C6          -3.5510     3.7910   -15.7990 c2         1 2UO      -0.209200
      8 C7          -3.2720     3.0460   -14.5250 c6         1 2UO      -0.028500
      9 C20         -3.3000     1.5290   -14.7770 c3         1 2UO      -0.085100
     10 C8          -4.2130     3.5240   -13.3950 c6         1 2UO      -0.044700
     11 C9          -5.6780     3.5380   -13.8840 c6         1 2UO      -0.013500
     12 C10         -4.0300     2.7360   -12.0950 c3         1 2UO      -0.070400
     13 C11         -2.6110     2.8130   -11.5360 c3         1 2UO      -0.076400
     14 C12         -2.4560     2.1710   -10.1720 c6         1 2UO       0.198300
     15 C13         -1.0920     2.4020    -9.5550 c6         1 2UO      -0.107400
     16 C14         -0.9220     1.5740    -8.2950 c6         1 2UO       0.176300
     17 O3          -1.9200     2.0030    -7.3600 oh         1 2UO      -0.665000
     18 C15         -1.0840     0.1020    -8.6450 c6         1 2UO      -0.226400
     19 C22         -2.2380    -0.2200    -9.5660 c          1 2UO       0.677100
     20 O2          -2.6790    -1.3450    -9.6760 o          1 2UO      -0.511000
     21 O1          -2.7480     0.7400   -10.3430 os         1 2UO      -0.461100
     22 O4          -6.2360     5.1700   -12.2130 os         1 2UO      -0.453100
     23 C23         -6.5450     5.4280   -10.9380 c          1 2UO       0.588100
     24 O5          -7.2360     4.7030   -10.2520 o          1 2UO      -0.494000
     25 C16         -5.8840     6.7080   -10.4680 c3         1 2UO      -0.117700
     26 C19         -6.6040     7.3040    -9.2630 c3         1 2UO      -0.080100
     27 C17         -4.3800     6.4470   -10.2100 c3         1 2UO      -0.069400
     28 C18         -4.0810     5.4610    -9.0830 c3         1 2UO      -0.094100
     29 H1          -6.7120     3.1680   -12.0200 h1         1 2UO       0.070700
     30 H2          -8.7940     4.3160   -12.5860 hc         1 2UO       0.057200
     31 H3          -8.3770     3.1470   -13.8310 hc         1 2UO       0.057200
     32 H4          -8.1490     6.1860   -13.9660 hc         1 2UO       0.051200
     33 H5          -9.0350     5.1290   -15.0320 hc         1 2UO       0.051200
     34 H6          -6.9590     5.7500   -16.2540 ha         1 2UO       0.172000
     35 H7          -4.8430     4.9590   -16.9780 ha         1 2UO       0.173000
     36 H8          -2.7630     3.7990   -16.5460 ha         1 2UO       0.173000
     37 H9          -2.2490     3.2970   -14.2260 hc         1 2UO       0.046700
     38 H10         -2.9440     0.9720   -13.9100 hc         1 2UO       0.038033
     39 H11         -4.3090     1.1850   -15.0150 hc         1 2UO       0.038033
     40 H12         -2.6570     1.2790   -15.6230 hc         1 2UO       0.038033
     41 H13         -3.9390     4.5630   -13.1870 hc         1 2UO       0.057700
     42 H14         -5.9380     2.5120   -14.1730 hc         1 2UO       0.065700
     43 H15         -4.7020     3.1330   -11.3330 hc         1 2UO       0.053700
     44 H16         -4.3200     1.6930   -12.2440 hc         1 2UO       0.053700
     45 H17         -1.8870     2.3540   -12.2130 hc         1 2UO       0.050200
     46 H18         -2.3240     3.8640   -11.4320 hc         1 2UO       0.050200
     47 H19         -3.2300     2.5360    -9.4980 h1         1 2UO       0.076700
     48 H20         -0.3060     2.1370   -10.2660 hc         1 2UO       0.065700
     49 H21         -0.9960     3.4640    -9.3270 hc         1 2UO       0.065700
     50 H22          0.0720     1.7340    -7.8700 h1         1 2UO       0.046700
     51 H23         -1.8210     1.4890    -6.5490 ho         1 2UO       0.449000
     52 H24         -1.1880    -0.5150    -7.7520 hc         1 2UO       0.080700
     53 H25         -0.1850    -0.2450    -9.1640 hc         1 2UO       0.080700
     54 H28         -5.9420     7.4090   -11.3040 hc         1 2UO       0.071700
     55 H29         -6.0930     8.2130    -8.9420 hc         1 2UO       0.044033
     56 H30         -7.6350     7.5600    -9.5130 hc         1 2UO       0.044033
     57 H31         -6.6270     6.6090    -8.4240 hc         1 2UO       0.044033
     58 H32         -3.9250     6.0930   -11.1370 hc         1 2UO       0.045700
     59 H33         -3.9200     7.4130    -9.9820 hc         1 2UO       0.045700
     60 H34         -3.0050     5.2950    -9.0010 hc         1 2UO       0.037700
     61 H35         -4.4360     5.8300    -8.1190 hc         1 2UO       0.037700
     62 H36         -4.5500     4.4920    -9.2630 hc         1 2UO       0.037700
@<TRIPOS>BOND
     1     1     2 1   
     2     1    11 1   
     3     1    22 1   
     4     1    29 1   
     5     2     3 1   
     6     2    30 1   
     7     2    31 1   
     8     3     4 1   
     9     3    32 1   
    10     3    33 1   
    11     4     5 2   
    12     4    34 1   
    13     5     6 1   
    14     5    11 1   
    15     6     7 2   
    16     6    35 1   
    17     7     8 1   
    18     7    36 1   
    19     8     9 1   
    20     8    10 1   
    21     8    37 1   
    22     9    38 1   
    23     9    39 1   
    24     9    40 1   
    25    10    11 1   
    26    10    12 1   
    27    10    41 1   
    28    11    42 1   
    29    12    13 1   
    30    12    43 1   
    31    12    44 1   
    32    13    14 1   
    33    13    45 1   
    34    13    46 1   
    35    14    15 1   
    36    14    21 1   
    37    14    47 1   
    38    15    16 1   
    39    15    48 1   
    40    15    49 1   
    41    16    17 1   
    42    16    18 1   
    43    16    50 1   
    44    17    51 1   
    45    18    19 1   
    46    18    52 1   
    47    18    53 1   
    48    19    20 2   
    49    19    21 1   
    50    22    23 1   
    51    23    24 2   
    52    23    25 1   
    53    25    26 1   
    54    25    27 1   
    55    25    54 1   
    56    26    55 1   
    57    26    56 1   
    58    26    57 1   
    59    27    28 1   
    60    27    58 1   
    61    27    59 1   
    62    28    60 1   
    63    28    61 1   
    64    28    62 1   
@<TRIPOS>SUBSTRUCTURE
     1 2UO         1 TEMP              0 ****  ****    0 ROOT
