@<TRIPOS>MOLECULE
2UP
   23    24     1     0     0
SMALL
No Charge or Current Charge


@<TRIPOS>ATOM
      1 CAI         -0.4410    -0.8910     0.0150 ca         1 2UP      -0.044000
      2 CAM          0.9210    -0.5360     0.0020 ca         1 2UP      -0.048000
      3 CAG          1.9140    -1.5320    -0.0740 ca         1 2UP      -0.089000
      4 CAD          3.2730    -1.1740    -0.0870 ca         1 2UP      -0.112000
      5 CAC          3.6450     0.1800    -0.0240 ca         1 2UP      -0.100000
      6 CAF          2.6580     1.1770     0.0530 ca         1 2UP      -0.103000
      7 CAL          1.2960     0.8220     0.0650 ca         1 2UP      -0.026000
      8 CAH          0.3040     1.8140     0.1480 ca         1 2UP      -0.107000
      9 CAE         -1.0560     1.4580     0.1610 ca         1 2UP      -0.094000
     10 CAK         -1.4500     0.0990     0.0760 ca         1 2UP      -0.148900
     11 CAJ         -2.8960    -0.3010     0.1200 ce         1 2UP       0.660800
     12 NAB         -3.2860    -1.4800     0.3840 n2         1 2UP      -0.829100
     13 NAA         -3.8230     0.6120    -0.2410 nv         1 2UP      -1.075200
     14 H1          -0.7160    -1.9420    -0.0320 ha         1 2UP       0.136000
     15 H2           1.6360    -2.5830    -0.1230 ha         1 2UP       0.117000
     16 H3           4.0380    -1.9460    -0.1460 ha         1 2UP       0.114000
     17 H4           4.6980     0.4560    -0.0330 ha         1 2UP       0.113000
     18 H5           2.9530     2.2230     0.1030 ha         1 2UP       0.113000
     19 H6           0.5830     2.8630     0.2100 ha         1 2UP       0.115000
     20 H7          -1.7980     2.2480     0.2480 ha         1 2UP       0.118000
     21 H8          -4.2980    -1.4480     0.5490 hn         1 2UP       0.370400
     22 H9          -3.4530     1.4230    -0.7230 hn         1 2UP       0.460500
     23 H10         -4.6880     0.2460    -0.6200 hn         1 2UP       0.460500
@<TRIPOS>BOND
     1     1     2 ar  
     2     1    10 ar  
     3     1    14 1   
     4     2     3 ar  
     5     2     7 ar  
     6     3     4 ar  
     7     3    15 1   
     8     4     5 ar  
     9     4    16 1   
    10     5     6 ar  
    11     5    17 1   
    12     6     7 ar  
    13     6    18 1   
    14     7     8 ar  
    15     8     9 ar  
    16     8    19 1   
    17     9    10 ar  
    18     9    20 1   
    19    10    11 1   
    20    11    12 2   
    21    11    13 1   
    22    12    21 1   
    23    13    22 1   
    24    13    23 1   
@<TRIPOS>SUBSTRUCTURE
     1 2UP         1 TEMP              0 ****  ****    0 ROOT
