@<TRIPOS>MOLECULE
2UP
   23    24     1     0     0
SMALL
bcc


@<TRIPOS>ATOM
      1 CAI         -0.4700    -0.8690     0.0280 ca         1 2UP      -0.062000
      2 CAM          0.9010    -0.5350     0.0080 ca         1 2UP      -0.048000
      3 CAG          1.9090    -1.5260    -0.0900 ca         1 2UP      -0.107000
      4 CAD          3.2300    -1.1750    -0.1090 ca         1 2UP      -0.130000
      5 CAC          3.6090     0.1830    -0.0310 ca         1 2UP      -0.118000
      6 CAF          2.6580     1.1620     0.0660 ca         1 2UP      -0.121000
      7 CAL          1.2830     0.8290     0.0860 ca         1 2UP      -0.026000
      8 CAH          0.2710     1.8110     0.1830 ca         1 2UP      -0.125000
      9 CAE         -1.0500     1.4600     0.1910 ca         1 2UP      -0.112000
     10 CAK         -1.4380     0.1000     0.1080 ca         1 2UP      -0.148900
     11 CAJ         -2.8740    -0.2940     0.1160 ce         1 2UP       0.660800
     12 NAB         -3.1940    -1.4430     0.5750 n2         1 2UP      -0.829100
     13 NAA         -3.7390     0.6600    -0.3380 nv         1 2UP      -0.964800
     14 H1          -0.7610    -1.9110    -0.0320 ha         1 2UP       0.154000
     15 H2           1.6180    -2.5680    -0.1510 ha         1 2UP       0.135000
     16 H3           3.9930    -1.9380    -0.1840 ha         1 2UP       0.132000
     17 H4           4.6590     0.4450    -0.0460 ha         1 2UP       0.131000
     18 H5           2.9480     2.2040     0.1260 ha         1 2UP       0.131000
     19 H6           0.5530     2.8550     0.2560 ha         1 2UP       0.133000
     20 H7          -1.8000     2.2340     0.2820 ha         1 2UP       0.136000
     21 H8          -4.1940    -1.6060     0.4920 hn         1 2UP       0.370400
     22 H9          -3.4030     1.3290    -1.0120 hn         1 2UP       0.405300
     23 H10         -4.6950     0.3810    -0.4930 hn         1 2UP       0.405300
@<TRIPOS>BOND
     1     1     2 ar  
     2     1    10 ar  
     3     1    14 1   
     4     2     3 ar  
     5     2     7 ar  
     6     3     4 ar  
     7     3    15 1   
     8     4     5 ar  
     9     4    16 1   
    10     5     6 ar  
    11     5    17 1   
    12     6     7 ar  
    13     6    18 1   
    14     7     8 ar  
    15     8     9 ar  
    16     8    19 1   
    17     9    10 ar  
    18     9    20 1   
    19    10    11 1   
    20    11    12 2   
    21    11    13 1   
    22    12    21 1   
    23    13    22 1   
    24    13    23 1   
@<TRIPOS>SUBSTRUCTURE
     1 2UP         1 TEMP              0 ****  ****    0 ROOT
