@<TRIPOS>MOLECULE
2UQ
   30    31     1     0     0
SMALL
bcc


@<TRIPOS>ATOM
      1 C1           1.4980     0.7580     0.1180 ca         1 2UQ      -0.389200
      2 C2           2.7050     1.4440     0.0970 ca         1 2UQ       0.470200
      3 C11         -3.2160     0.3570    -0.2020 ca         1 2UQ      -0.118300
      4 C12          5.1680    -1.1720     0.1450 ce         1 2UQ       0.355200
      5 C14         -3.2890    -0.3280     1.0100 ca         1 2UQ      -0.113000
      6 C15         -4.2360    -1.3230     1.2020 ca         1 2UQ      -0.130000
      7 C16         -5.1220    -1.6480     0.1800 ca         1 2UQ      -0.118000
      8 C17         -5.0540    -0.9730    -1.0300 ca         1 2UQ      -0.130000
      9 C18         -4.1030     0.0240    -1.2180 ca         1 2UQ      -0.113000
     10 N3           3.8700     0.8160     0.1000 nb         1 2UQ      -0.679000
     11 C4           3.8420    -0.5110     0.1430 ca         1 2UQ       0.616700
     12 N5           2.7500    -1.2620     0.1890 nb         1 2UQ      -0.679000
     13 C6           1.5900    -0.6290     0.1760 ca         1 2UQ       0.470200
     14 C7           0.2140     1.5180     0.1380 c          1 2UQ       0.691700
     15 O8           0.1730     2.6500     0.5970 o          1 2UQ      -0.593100
     16 N9          -0.8490     0.8710    -0.3630 ns         1 2UQ      -0.566900
     17 C10         -2.1840     1.4340    -0.4010 c3         1 2UQ       0.146300
     18 N13          5.2770    -2.4280     0.2040 n2         1 2UQ      -0.690100
     19 H1           2.7290     2.5270     0.0690 h4         1 2UQ       0.039600
     20 H2           6.0080    -0.4780     0.0930 h4         1 2UQ      -0.008200
     21 H3          -2.6030    -0.0780     1.8120 ha         1 2UQ       0.134000
     22 H4          -4.2850    -1.8440     2.1490 ha         1 2UQ       0.134000
     23 H5          -5.8610    -2.4240     0.3280 ha         1 2UQ       0.133000
     24 H6          -5.7380    -1.2220    -1.8310 ha         1 2UQ       0.134000
     25 H7          -4.0530     0.5470    -2.1660 ha         1 2UQ       0.134000
     26 H8           0.7040    -1.2520     0.2350 h4         1 2UQ       0.039600
     27 H9          -0.7080     0.0100    -0.8670 hn         1 2UQ       0.318500
     28 H10         -2.3540     1.9500    -1.3500 h1         1 2UQ       0.063700
     29 H11         -2.2590     2.1810     0.3880 h1         1 2UQ       0.063700
     30 H12          6.2580    -2.6940     0.1960 hn         1 2UQ       0.383400
@<TRIPOS>BOND
     1     1     2 ar  
     2     1    13 ar  
     3     1    14 1   
     4     2    10 ar  
     5     2    19 1   
     6     3     5 ar  
     7     3     9 ar  
     8     3    17 1   
     9     4    11 1   
    10     4    18 2   
    11     4    20 1   
    12     5     6 ar  
    13     5    21 1   
    14     6     7 ar  
    15     6    22 1   
    16     7     8 ar  
    17     7    23 1   
    18     8     9 ar  
    19     8    24 1   
    20     9    25 1   
    21    10    11 ar  
    22    11    12 ar  
    23    12    13 ar  
    24    13    26 1   
    25    14    15 2   
    26    14    16 1   
    27    16    17 1   
    28    16    27 1   
    29    17    28 1   
    30    17    29 1   
    31    18    30 1   
@<TRIPOS>SUBSTRUCTURE
     1 2UQ         1 TEMP              0 ****  ****    0 ROOT
