@<TRIPOS>MOLECULE
2UQ
   30    31     1     0     0
SMALL
No Charge or Current Charge


@<TRIPOS>ATOM
      1 C1           1.5660     0.8460     0.0000 ca         1 2UQ      -0.258600
      2 C2           2.8010     1.5220    -0.0020 ca         1 2UQ       0.141900
      3 C11         -3.2740     0.3450     0.0080 ca         1 2UQ      -0.118300
      4 C12          5.2440    -1.2060    -0.0030 ce         1 2UQ       0.355200
      5 C14         -3.7590    -0.1690     1.2270 ca         1 2UQ      -0.095000
      6 C15         -4.7280    -1.1880     1.2300 ca         1 2UQ      -0.112000
      7 C16         -5.2160    -1.6980     0.0150 ca         1 2UQ      -0.100000
      8 C17         -4.7330    -1.1900    -1.2030 ca         1 2UQ      -0.112000
      9 C18         -3.7640    -0.1720    -1.2070 ca         1 2UQ      -0.095000
     10 N3           3.9750     0.8610    -0.0030 nb         1 2UQ      -0.153000
     11 C4           3.9250    -0.4910    -0.0020 ca         1 2UQ       0.090700
     12 N5           2.7890    -1.2310     0.0010 nb         1 2UQ      -0.153000
     13 C6           1.6170    -0.5640     0.0020 ca         1 2UQ       0.141900
     14 C7           0.2790     1.6150     0.0010 c          1 2UQ       0.624700
     15 O8           0.2540     2.8370     0.0000 o          1 2UQ      -0.593100
     16 N9          -0.8770     0.8730     0.0040 ns         1 2UQ      -0.499900
     17 C10         -2.2210     1.4420     0.0050 c3         1 2UQ       0.146300
     18 N13          5.3500    -2.4990    -0.0020 n2         1 2UQ      -0.690100
     19 H1           2.8600     2.6100    -0.0040 h4         1 2UQ       0.039600
     20 H2           6.1390    -0.5800    -0.0050 h4         1 2UQ      -0.008200
     21 H3          -3.3840     0.2190     2.1720 ha         1 2UQ       0.116000
     22 H4          -5.1000    -1.5810     2.1730 ha         1 2UQ       0.116000
     23 H5          -5.9660    -2.4870     0.0180 ha         1 2UQ       0.115000
     24 H6          -5.1090    -1.5860    -2.1440 ha         1 2UQ       0.116000
     25 H7          -3.3940     0.2140    -2.1540 ha         1 2UQ       0.116000
     26 H8           0.7200    -1.1800     0.0040 h4         1 2UQ       0.039600
     27 H9          -0.7840    -0.1340     0.0050 hn         1 2UQ       0.318500
     28 H10         -2.3440     2.0750    -0.8840 h1         1 2UQ       0.063700
     29 H11         -2.3410     2.0780     0.8930 h1         1 2UQ       0.063700
     30 H12          6.3470    -2.7610    -0.0030 hn         1 2UQ       0.383400
@<TRIPOS>BOND
     1     1     2 ar  
     2     1    13 ar  
     3     1    14 1   
     4     2    10 ar  
     5     2    19 1   
     6     3     5 ar  
     7     3     9 ar  
     8     3    17 1   
     9     4    11 1   
    10     4    18 2   
    11     4    20 1   
    12     5     6 ar  
    13     5    21 1   
    14     6     7 ar  
    15     6    22 1   
    16     7     8 ar  
    17     7    23 1   
    18     8     9 ar  
    19     8    24 1   
    20     9    25 1   
    21    10    11 ar  
    22    11    12 ar  
    23    12    13 ar  
    24    13    26 1   
    25    14    15 2   
    26    14    16 1   
    27    16    17 1   
    28    16    27 1   
    29    17    28 1   
    30    17    29 1   
    31    18    30 1   
@<TRIPOS>SUBSTRUCTURE
     1 2UQ         1 TEMP              0 ****  ****    0 ROOT
