@<TRIPOS>MOLECULE
2UR
   24    25     1     0     0
SMALL
No Charge or Current Charge


@<TRIPOS>ATOM
      1 O           -0.0560    -2.9780     0.5210 o          1 2UR      -0.581100
      2 C8           0.8550    -2.2200     0.2350 c          1 2UR       0.625700
      3 N            2.0790    -2.7500     0.0120 nt         1 2UR      -0.609000
      4 C7           0.7010    -0.7180     0.1080 ca         1 2UR      -0.163600
      5 C6           1.7950     0.1160    -0.2570 ca         1 2UR      -0.098000
      6 C5           1.6340     1.5120    -0.3690 ca         1 2UR       0.121000
      7 F            2.6900     2.2810    -0.7150 f          1 2UR      -0.179000
      8 C4           0.3900     2.1130    -0.1190 ca         1 2UR      -0.078000
      9 C9          -0.5400    -0.0800     0.3410 ca         1 2UR       0.168100
     10 C3          -0.6860     1.2880     0.2360 ca         1 2UR      -0.159300
     11 C2          -2.0800     1.7120     0.5650 c5         1 2UR      -0.054100
     12 O1          -1.6970    -0.7130     0.7130 os         1 2UR      -0.301100
     13 C1          -2.7590     0.2910     0.5900 c5         1 2UR       0.157300
     14 C           -3.5650    -0.0250    -0.6890 c3         1 2UR      -0.112100
     15 H1           2.2020    -3.7480     0.0910 hn         1 2UR       0.313500
     16 H2           2.8570    -2.1550    -0.2250 hn         1 2UR       0.313500
     17 H3           2.7790    -0.2980    -0.4590 ha         1 2UR       0.134000
     18 H4           0.2700     3.1900    -0.1980 ha         1 2UR       0.136000
     19 H5          -2.1420     2.2080     1.5400 hc         1 2UR       0.068200
     20 H6          -2.5180     2.3820    -0.1840 hc         1 2UR       0.068200
     21 H7          -3.4360     0.1940     1.4500 h1         1 2UR       0.081700
     22 H8          -2.9340     0.0420    -1.5840 hc         1 2UR       0.049033
     23 H9          -3.9880    -1.0350    -0.6460 hc         1 2UR       0.049033
     24 H10         -4.3960     0.6790    -0.8110 hc         1 2UR       0.049033
@<TRIPOS>BOND
     1     1     2 2   
     2     2     3 1   
     3     2     4 1   
     4     3    15 1   
     5     3    16 1   
     6     4     5 ar  
     7     4     9 ar  
     8     5     6 ar  
     9     5    17 1   
    10     6     7 1   
    11     6     8 ar  
    12     8    10 ar  
    13     8    18 1   
    14     9    10 ar  
    15     9    12 1   
    16    10    11 1   
    17    11    13 1   
    18    11    19 1   
    19    11    20 1   
    20    12    13 1   
    21    13    14 1   
    22    13    21 1   
    23    14    22 1   
    24    14    23 1   
    25    14    24 1   
@<TRIPOS>SUBSTRUCTURE
     1 2UR         1 TEMP              0 ****  ****    0 ROOT
