@<TRIPOS>MOLECULE
2UR
   24    25     1     0     0
SMALL
bcc


@<TRIPOS>ATOM
      1 O            0.2730    -2.7170     1.3600 o          1 2UR      -0.581100
      2 C8           0.9070    -2.1270     0.4980 c          1 2UR       0.692700
      3 N            1.8130    -2.7280    -0.2900 nt         1 2UR      -0.676000
      4 C7           0.7350    -0.6630     0.2680 ca         1 2UR      -0.163600
      5 C6           1.8190     0.1530    -0.0760 ca         1 2UR      -0.116000
      6 C5           1.6390     1.5080    -0.2490 ca         1 2UR       0.085900
      7 F            2.7040     2.2670    -0.5690 f          1 2UR      -0.143900
      8 C4           0.4050     2.1230    -0.0970 ca         1 2UR      -0.096000
      9 C9          -0.5010    -0.0480     0.4310 ca         1 2UR       0.168100
     10 C3          -0.6630     1.3220     0.2430 ca         1 2UR      -0.159300
     11 C2          -2.0970     1.6570     0.5090 c5         1 2UR      -0.054100
     12 O1          -1.6490    -0.6690     0.7460 os         1 2UR      -0.277900
     13 C1          -2.7420     0.2600     0.5320 c5         1 2UR       0.134100
     14 C           -3.4440    -0.0890    -0.7640 c3         1 2UR      -0.112100
     15 H1           1.9870    -3.7150    -0.1890 hn         1 2UR       0.313500
     16 H2           2.2190    -2.2700    -1.0870 hn         1 2UR       0.313500
     17 H3           2.8110    -0.2660    -0.1900 ha         1 2UR       0.152000
     18 H4           0.2950     3.1910    -0.2360 ha         1 2UR       0.154000
     19 H5          -2.2030     2.1710     1.4680 hc         1 2UR       0.068200
     20 H6          -2.5400     2.2970    -0.2550 hc         1 2UR       0.068200
     21 H7          -3.4240     0.1400     1.3740 h1         1 2UR       0.081700
     22 H8          -2.7740     0.0170    -1.6200 hc         1 2UR       0.049033
     23 H9          -3.8250    -1.1100    -0.7470 hc         1 2UR       0.049033
     24 H10         -4.2890     0.5830    -0.9150 hc         1 2UR       0.049033
@<TRIPOS>BOND
     1     1     2 2   
     2     2     3 1   
     3     2     4 1   
     4     3    15 1   
     5     3    16 1   
     6     4     5 ar  
     7     4     9 ar  
     8     5     6 ar  
     9     5    17 1   
    10     6     7 1   
    11     6     8 ar  
    12     8    10 ar  
    13     8    18 1   
    14     9    10 ar  
    15     9    12 1   
    16    10    11 1   
    17    11    13 1   
    18    11    19 1   
    19    11    20 1   
    20    12    13 1   
    21    13    14 1   
    22    13    21 1   
    23    14    22 1   
    24    14    23 1   
    25    14    24 1   
@<TRIPOS>SUBSTRUCTURE
     1 2UR         1 TEMP              0 ****  ****    0 ROOT
