@<TRIPOS>MOLECULE
2US
   33    35     1     0     0
SMALL
abcg2


@<TRIPOS>ATOM
      1 O4          -1.1350    -3.4260     0.0300 o          1 2US      -0.504100
      2 C11         -1.2670    -2.2180     0.0300 c          1 2US       0.583900
      3 C12         -2.4900    -1.4190     0.0620 ca         1 2US      -0.273600
      4 C2          -2.0970    -0.0870     0.0540 ca         1 2US       0.196100
      5 C13         -3.8330    -1.7680     0.0940 ca         1 2US       0.021000
      6 C14         -4.7670    -0.7470     0.1100 ca         1 2US      -0.169000
      7 C15         -4.3550     0.5860     0.0880 ca         1 2US      -0.029000
      8 C1          -3.0120     0.9590     0.0560 ca         1 2US      -0.187600
      9 C           -2.5610     2.3830     0.0870 c          1 2US       0.629700
     10 O           -1.5250     2.7050     0.6490 o          1 2US      -0.589100
     11 N           -3.3740     3.2570    -0.5220 nt         1 2US      -0.605000
     12 C3          -0.1960    -1.2010    -0.0060 cc         1 2US      -0.082100
     13 O1          -0.7550     0.0510     0.0090 os         1 2US      -0.177200
     14 C4           1.1230    -1.4370    -0.0570 cf         1 2US      -0.066200
     15 C5           2.2330    -0.5130    -0.0680 ca         1 2US      -0.204800
     16 C10          3.5340    -0.9750    -0.3750 ca         1 2US       0.207100
     17 O3           3.8050    -2.2410    -0.7310 oh         1 2US      -0.533100
     18 C9           4.6270    -0.1210    -0.3200 ca         1 2US      -0.205000
     19 C8           4.4570     1.2120     0.0290 ca         1 2US       0.196100
     20 O2           5.5470     1.9880     0.0630 oh         1 2US      -0.525100
     21 C7           3.1790     1.7000     0.3180 ca         1 2US      -0.251000
     22 C6           2.1010     0.8470     0.2660 ca         1 2US       0.010000
     23 H1          -4.1350    -2.8070     0.1090 ha         1 2US       0.135000
     24 H2          -5.8230    -0.9730     0.1430 ha         1 2US       0.125000
     25 H3          -5.1170     1.3550     0.1170 ha         1 2US       0.116000
     26 H4          -4.1500     2.9700    -1.0910 hn         1 2US       0.315500
     27 H5          -3.1310     4.2350    -0.5380 hn         1 2US       0.315500
     28 H6           1.3360    -2.5010    -0.0700 ha         1 2US       0.190000
     29 H7           3.0140    -2.7310    -0.9760 ho         1 2US       0.474000
     30 H8           5.6120    -0.4990    -0.5640 ha         1 2US       0.146000
     31 H9           5.3130     2.8920     0.3040 ho         1 2US       0.472000
     32 H10          3.0340     2.7390     0.5870 ha         1 2US       0.123000
     33 H11          1.1290     1.2480     0.5120 ha         1 2US       0.146000
@<TRIPOS>BOND
     1     1     2 2   
     2     2     3 1   
     3     2    12 1   
     4     3     4 ar  
     5     3     5 ar  
     6     4     8 ar  
     7     4    13 1   
     8     5     6 ar  
     9     5    23 1   
    10     6     7 ar  
    11     6    24 1   
    12     7     8 ar  
    13     7    25 1   
    14     8     9 1   
    15     9    10 2   
    16     9    11 1   
    17    11    26 1   
    18    11    27 1   
    19    12    13 1   
    20    12    14 2   
    21    14    15 1   
    22    14    28 1   
    23    15    16 ar  
    24    15    22 ar  
    25    16    17 1   
    26    16    18 ar  
    27    17    29 1   
    28    18    19 ar  
    29    18    30 1   
    30    19    20 1   
    31    19    21 ar  
    32    20    31 1   
    33    21    22 ar  
    34    21    32 1   
    35    22    33 1   
@<TRIPOS>SUBSTRUCTURE
     1 2US         1 TEMP              0 ****  ****    0 ROOT
