@<TRIPOS>MOLECULE
2US
   33    35     1     0     0
SMALL
No Charge or Current Charge


@<TRIPOS>ATOM
      1 O4          -1.1470    -3.3710     0.0640 o          1 2US      -0.504100
      2 C11         -1.2580    -2.1520     0.0080 c          1 2US       0.583900
      3 C12         -2.4880    -1.3730     0.0100 ca         1 2US      -0.273600
      4 C2          -2.1300    -0.0400    -0.0660 ca         1 2US       0.196100
      5 C13         -3.8170    -1.8030     0.0730 ca         1 2US       0.021000
      6 C14         -4.8140    -0.8130     0.0580 ca         1 2US      -0.169000
      7 C15         -4.4720     0.5570    -0.0180 ca         1 2US      -0.029000
      8 C1          -3.1130     0.9730    -0.0820 ca         1 2US      -0.187600
      9 C           -2.7320     2.4340    -0.1610 c          1 2US       0.629700
     10 O           -1.5800     2.8330    -0.1980 o          1 2US      -0.589100
     11 N           -3.7270     3.3470    -0.1890 nt         1 2US      -0.605000
     12 C3          -0.2160    -1.1080    -0.0760 cc         1 2US      -0.082100
     13 O1          -0.7610     0.1660    -0.1220 os         1 2US      -0.177200
     14 C4           1.1300    -1.3710    -0.1030 cf         1 2US      -0.066200
     15 C5           2.3490    -0.5120    -0.0700 ca         1 2US      -0.204800
     16 C10          3.6470    -1.0610    -0.2370 ca         1 2US       0.207100
     17 O3           3.8340    -2.3840    -0.5080 oh         1 2US      -0.533100
     18 C9           4.7840    -0.2470    -0.1530 ca         1 2US      -0.205000
     19 C8           4.6570     1.1240     0.0790 ca         1 2US       0.196100
     20 O2           5.7680     1.9040     0.1530 oh         1 2US      -0.525100
     21 C7           3.3880     1.6890     0.2310 ca         1 2US      -0.251000
     22 C6           2.2410     0.8800     0.1580 ca         1 2US       0.010000
     23 H1          -4.0700    -2.8600     0.1320 ha         1 2US       0.135000
     24 H2          -5.8610    -1.1050     0.1060 ha         1 2US       0.125000
     25 H3          -5.2810     1.2820    -0.0250 ha         1 2US       0.116000
     26 H4          -4.6900     3.0540    -0.1600 hn         1 2US       0.315500
     27 H5          -3.4900     4.3270    -0.2400 hn         1 2US       0.315500
     28 H6           1.3270    -2.4430    -0.0420 ha         1 2US       0.190000
     29 H7           3.0410    -2.7180    -0.9740 ho         1 2US       0.474000
     30 H8           5.7710    -0.6820    -0.2810 ha         1 2US       0.146000
     31 H9           5.4820     2.8270     0.3180 ho         1 2US       0.472000
     32 H10          3.2770     2.7550     0.4130 ha         1 2US       0.123000
     33 H11          1.2740     1.3530     0.3020 ha         1 2US       0.146000
@<TRIPOS>BOND
     1     1     2 2   
     2     2     3 1   
     3     2    12 1   
     4     3     4 ar  
     5     3     5 ar  
     6     4     8 ar  
     7     4    13 1   
     8     5     6 ar  
     9     5    23 1   
    10     6     7 ar  
    11     6    24 1   
    12     7     8 ar  
    13     7    25 1   
    14     8     9 1   
    15     9    10 2   
    16     9    11 1   
    17    11    26 1   
    18    11    27 1   
    19    12    13 1   
    20    12    14 2   
    21    14    15 1   
    22    14    28 1   
    23    15    16 ar  
    24    15    22 ar  
    25    16    17 1   
    26    16    18 ar  
    27    17    29 1   
    28    18    19 ar  
    29    18    30 1   
    30    19    20 1   
    31    19    21 ar  
    32    20    31 1   
    33    21    22 ar  
    34    21    32 1   
    35    22    33 1   
@<TRIPOS>SUBSTRUCTURE
     1 2US         1 TEMP              0 ****  ****    0 ROOT
