@<TRIPOS>MOLECULE
2UT
   51    54     1     0     0
SMALL
abcg2


@<TRIPOS>ATOM
      1 O4          -4.8400    -3.0090     0.3790 o          1 2UT      -0.503100
      2 C17         -4.4960    -1.8530     0.2310 c          1 2UT       0.584900
      3 C18         -5.3030    -0.6350     0.2560 ca         1 2UT      -0.273600
      4 C2          -4.4340     0.4240     0.0330 ca         1 2UT       0.198100
      5 C19         -6.6590    -0.4160     0.4560 ca         1 2UT       0.020000
      6 C20         -7.1150     0.8900     0.4360 ca         1 2UT      -0.171000
      7 C21         -6.2260     1.9440     0.2270 ca         1 2UT      -0.030000
      8 C1          -4.8600     1.7470     0.0230 ca         1 2UT      -0.188600
      9 C           -3.9110     2.8670    -0.2530 c          1 2UT       0.628700
     10 O           -2.9470     2.7110    -0.9870 o          1 2UT      -0.587100
     11 N           -4.2050     4.0320     0.3410 nt         1 2UT      -0.606000
     12 C3          -3.1280    -1.3510    -0.0180 cc         1 2UT      -0.084100
     13 O1          -3.1580     0.0160    -0.1300 os         1 2UT      -0.178200
     14 C4          -2.0110    -2.0840    -0.1180 cf         1 2UT      -0.059200
     15 C5          -0.6440    -1.6790    -0.3570 ca         1 2UT      -0.123800
     16 C16         -0.2300    -0.3630    -0.6310 ca         1 2UT      -0.036500
     17 C15          1.0990    -0.0710    -0.8410 ca         1 2UT      -0.189000
     18 C8           2.0730    -1.0750    -0.7830 ca         1 2UT       0.167100
     19 C7           1.6820    -2.3870    -0.5160 ca         1 2UT      -0.189000
     20 C6           0.3420    -2.6700    -0.3130 ca         1 2UT      -0.036500
     21 O2           3.3340    -0.6870    -0.9960 os         1 2UT      -0.324100
     22 C9           4.3820    -1.6390    -0.8940 c3         1 2UT       0.165600
     23 C10          5.6920    -0.9300    -1.1610 c3         1 2UT       0.170800
     24 N1           5.9550     0.1680    -0.2570 n3         1 2UT      -0.706600
     25 C14          6.2470    -0.2620     1.0990 c6         1 2UT       0.127300
     26 C13          6.4640     0.9470     1.9910 c6         1 2UT       0.153600
     27 O3           7.4940     1.7790     1.5060 os         1 2UT      -0.450000
     28 C12          7.2190     2.1970     0.1880 c6         1 2UT       0.153600
     29 C11          7.0290     1.0140    -0.7430 c6         1 2UT       0.127300
     30 H1          -7.3360    -1.2450     0.6210 ha         1 2UT       0.134000
     31 H2          -8.1650     1.1040     0.5780 ha         1 2UT       0.124000
     32 H3          -6.6220     2.9510     0.2030 ha         1 2UT       0.116000
     33 H4          -4.9090     4.1150     1.0540 hn         1 2UT       0.315000
     34 H5          -3.6100     4.8310     0.1910 hn         1 2UT       0.315000
     35 H6          -2.1740    -3.1490     0.0130 ha         1 2UT       0.198000
     36 H7          -0.9440     0.4450    -0.6900 ha         1 2UT       0.128000
     37 H8           1.4020     0.9470    -1.0530 ha         1 2UT       0.125500
     38 H9           2.3980    -3.1950    -0.4690 ha         1 2UT       0.125500
     39 H10          0.0550    -3.6940    -0.1100 ha         1 2UT       0.128000
     40 H11          4.3690    -2.1110     0.0930 h1         1 2UT       0.036700
     41 H12          4.2570    -2.4340    -1.6370 h1         1 2UT       0.036700
     42 H13          6.4850    -1.6960    -1.1370 h1         1 2UT       0.043700
     43 H14          5.6730    -0.5360    -2.1800 h1         1 2UT       0.043700
     44 H16          5.4110    -0.8330     1.5070 h1         1 2UT       0.039700
     45 H17          7.1360    -0.9160     1.1340 h1         1 2UT       0.039700
     46 H18          5.5220     1.5080     2.0690 h1         1 2UT       0.052450
     47 H19          6.7470     0.6240     2.9940 h1         1 2UT       0.052450
     48 H20          6.3150     2.8220     0.1650 h1         1 2UT       0.052450
     49 H21          8.0600     2.8070    -0.1460 h1         1 2UT       0.052450
     50 H22          7.9810     0.4620    -0.8340 h1         1 2UT       0.039700
     51 H23          6.7760     1.3870    -1.7390 h1         1 2UT       0.039700
@<TRIPOS>BOND
     1     1     2 2   
     2     2     3 1   
     3     2    12 1   
     4     3     4 ar  
     5     3     5 ar  
     6     4     8 ar  
     7     4    13 1   
     8     5     6 ar  
     9     5    30 1   
    10     6     7 ar  
    11     6    31 1   
    12     7     8 ar  
    13     7    32 1   
    14     8     9 1   
    15     9    10 2   
    16     9    11 1   
    17    11    33 1   
    18    11    34 1   
    19    12    13 1   
    20    12    14 2   
    21    14    15 1   
    22    14    35 1   
    23    15    16 ar  
    24    15    20 ar  
    25    16    17 ar  
    26    16    36 1   
    27    17    18 ar  
    28    17    37 1   
    29    18    19 ar  
    30    18    21 1   
    31    19    20 ar  
    32    19    38 1   
    33    20    39 1   
    34    21    22 1   
    35    22    23 1   
    36    22    40 1   
    37    22    41 1   
    38    23    24 1   
    39    23    42 1   
    40    23    43 1   
    41    24    25 1   
    42    24    29 1   
    43    25    26 1   
    44    25    44 1   
    45    25    45 1   
    46    26    27 1   
    47    26    46 1   
    48    26    47 1   
    49    27    28 1   
    50    28    29 1   
    51    28    48 1   
    52    28    49 1   
    53    29    50 1   
    54    29    51 1   
@<TRIPOS>SUBSTRUCTURE
     1 2UT         1 TEMP              0 ****  ****    0 ROOT
