@<TRIPOS>MOLECULE
2UT
   51    54     1     0     0
SMALL
No Charge or Current Charge


@<TRIPOS>ATOM
      1 O4          -4.8540    -2.9810     0.5260 o          1 2UT      -0.503100
      2 C17         -4.5450    -1.8080     0.3540 c          1 2UT       0.584900
      3 C18         -5.4240    -0.6480     0.3660 ca         1 2UT      -0.273600
      4 C2          -4.6390     0.4650     0.1270 ca         1 2UT       0.198100
      5 C19         -6.8050    -0.5770     0.5700 ca         1 2UT       0.020000
      6 C20         -7.3970     0.6970     0.5250 ca         1 2UT      -0.171000
      7 C21         -6.6140     1.8500     0.2830 ca         1 2UT      -0.030000
      8 C1          -5.2100     1.7550     0.0770 ca         1 2UT      -0.188600
      9 C           -4.3600     2.9790    -0.1830 c          1 2UT       0.628700
     10 O           -3.1550     2.9410    -0.3640 o          1 2UT      -0.587100
     11 N           -4.9760     4.1810    -0.2160 nt         1 2UT      -0.606000
     12 C3          -3.2240    -1.2060     0.0870 cc         1 2UT      -0.084100
     13 O1          -3.2960     0.1710    -0.0480 os         1 2UT      -0.178200
     14 C4          -2.0620    -1.9270    -0.0140 cf         1 2UT      -0.059200
     15 C5          -0.6470    -1.5670    -0.2690 ca         1 2UT      -0.123800
     16 C16         -0.2330    -0.2330    -0.4740 ca         1 2UT      -0.036500
     17 C15          1.1210     0.0630    -0.7130 ca         1 2UT      -0.189000
     18 C8           2.0800    -0.9590    -0.7520 ca         1 2UT       0.167100
     19 C7           1.6760    -2.2940    -0.5480 ca         1 2UT      -0.189000
     20 C6           0.3220    -2.5910    -0.3090 ca         1 2UT      -0.036500
     21 O2           3.3910    -0.6040    -0.9900 os         1 2UT      -0.324100
     22 C9           4.4530    -1.5780    -1.0390 c3         1 2UT       0.165600
     23 C10          5.7970    -0.8500    -1.3160 c3         1 2UT       0.170800
     24 N1           6.2190     0.1720    -0.3140 n3         1 2UT      -0.706600
     25 C14          6.4100    -0.3730     1.0690 c6         1 2UT       0.127300
     26 C13          6.8470     0.7360     2.0730 c6         1 2UT       0.153600
     27 O3           8.0340     1.4120     1.5940 os         1 2UT      -0.450000
     28 C12          7.8430     2.0150     0.2920 c6         1 2UT       0.153600
     29 C11          7.4310     0.9330    -0.7500 c6         1 2UT       0.127300
     30 H1          -7.3990    -1.4700     0.7560 ha         1 2UT       0.134000
     31 H2          -8.4690     0.7970     0.6790 ha         1 2UT       0.124000
     32 H3          -7.1210     2.8110     0.2580 ha         1 2UT       0.116000
     33 H4          -5.9700     4.2500    -0.0700 hn         1 2UT       0.315000
     34 H5          -4.4240     5.0080    -0.3880 hn         1 2UT       0.315000
     35 H6          -2.2210    -2.9990     0.1240 ha         1 2UT       0.198000
     36 H7          -0.9450     0.5850    -0.4520 ha         1 2UT       0.128000
     37 H8           1.4280     1.0930    -0.8690 ha         1 2UT       0.125500
     38 H9           2.3910    -3.1100    -0.5720 ha         1 2UT       0.125500
     39 H10          0.0300    -3.6280    -0.1550 ha         1 2UT       0.128000
     40 H11          4.5200    -2.1310    -0.0940 h1         1 2UT       0.036700
     41 H12          4.2720    -2.3000    -1.8450 h1         1 2UT       0.036700
     42 H13          6.5790    -1.6170    -1.4070 h1         1 2UT       0.043700
     43 H14          5.7120    -0.3760    -2.3030 h1         1 2UT       0.043700
     44 H16          5.4780    -0.8220     1.4410 h1         1 2UT       0.039700
     45 H17          7.1730    -1.1660     1.0660 h1         1 2UT       0.039700
     46 H18          6.0370     1.4690     2.1970 h1         1 2UT       0.052450
     47 H19          7.0570     0.2900     3.0560 h1         1 2UT       0.052450
     48 H20          7.0630     2.7870     0.3600 h1         1 2UT       0.052450
     49 H21          8.7780     2.5010    -0.0210 h1         1 2UT       0.052450
     50 H22          8.2790     0.2480    -0.8970 h1         1 2UT       0.039700
     51 H23          7.2450     1.4270    -1.7150 h1         1 2UT       0.039700
@<TRIPOS>BOND
     1     1     2 2   
     2     2     3 1   
     3     2    12 1   
     4     3     4 ar  
     5     3     5 ar  
     6     4     8 ar  
     7     4    13 1   
     8     5     6 ar  
     9     5    30 1   
    10     6     7 ar  
    11     6    31 1   
    12     7     8 ar  
    13     7    32 1   
    14     8     9 1   
    15     9    10 2   
    16     9    11 1   
    17    11    33 1   
    18    11    34 1   
    19    12    13 1   
    20    12    14 2   
    21    14    15 1   
    22    14    35 1   
    23    15    16 ar  
    24    15    20 ar  
    25    16    17 ar  
    26    16    36 1   
    27    17    18 ar  
    28    17    37 1   
    29    18    19 ar  
    30    18    21 1   
    31    19    20 ar  
    32    19    38 1   
    33    20    39 1   
    34    21    22 1   
    35    22    23 1   
    36    22    40 1   
    37    22    41 1   
    38    23    24 1   
    39    23    42 1   
    40    23    43 1   
    41    24    25 1   
    42    24    29 1   
    43    25    26 1   
    44    25    44 1   
    45    25    45 1   
    46    26    27 1   
    47    26    46 1   
    48    26    47 1   
    49    27    28 1   
    50    28    29 1   
    51    28    48 1   
    52    28    49 1   
    53    29    50 1   
    54    29    51 1   
@<TRIPOS>SUBSTRUCTURE
     1 2UT         1 TEMP              0 ****  ****    0 ROOT
