@<TRIPOS>MOLECULE
2UU
   59    63     1     0     0
SMALL
bcc


@<TRIPOS>ATOM
      1 C1          -6.4980     1.6430    -2.5370 ca         1 2UU      -0.133000
      2 C2           6.0380    -0.1790    -1.9430 ca         1 2UU      -0.145000
      3 C3           6.7460     1.0310    -1.8200 ca         1 2UU      -0.131000
      4 C4          -5.1550     1.7060    -2.8880 ca         1 2UU      -0.121000
      5 C5          -6.8730     1.7860    -1.2080 ca         1 2UU      -0.121000
      6 C6           4.7720    -0.2880    -1.4370 ca         1 2UU      -0.097000
      7 C7           6.1780     2.0950    -1.1740 ca         1 2UU      -0.131000
      8 C8           1.6670    -0.9900    -1.6950 ca         1 2UU      -0.164000
      9 C9           2.3080     1.7730     0.4360 ca         1 2UU      -0.125000
     10 C10          0.8310    -2.0850    -1.8220 ca         1 2UU      -0.086000
     11 C11          3.0390     2.9640     0.6000 ca         1 2UU      -0.119000
     12 C12         -4.1850     1.9080    -1.9150 ca         1 2UU      -0.131500
     13 C13         -5.9120     1.9870    -0.2260 ca         1 2UU      -0.131500
     14 C14         -1.9500     1.5930     1.8290 ca         1 2UU      -0.208500
     15 C15         -3.2620    -0.0780     0.6730 ca         1 2UU      -0.208500
     16 C16         -1.2220     0.5950     2.4490 ca         1 2UU       0.005500
     17 C17         -2.5320    -1.0720     1.2990 ca         1 2UU       0.005500
     18 C18          1.4670    -1.1430     0.6900 ca         1 2UU      -0.179000
     19 C19          4.1440     0.8010    -0.7840 ca         1 2UU      -0.024000
     20 C20          4.8730     2.0140    -0.6290 ca         1 2UU      -0.029000
     21 C21          1.9890    -0.5040    -0.4280 cp         1 2UU      -0.045000
     22 C22          2.8240     0.7040    -0.2520 cp         1 2UU       0.004000
     23 C23          0.2760    -2.7210    -0.7160 ca         1 2UU      -0.174600
     24 C24          4.2960     3.1120     0.0750 ca         1 2UU      -0.086300
     25 C25          0.6080    -2.2310     0.5580 ca         1 2UU       0.156600
     26 C26         -4.5770     2.0480    -0.5920 ca         1 2UU       0.101100
     27 C27         -2.9680     1.2580     0.9390 ca         1 2UU       0.173100
     28 C28         -1.5180    -0.7350     2.1840 ca         1 2UU      -0.323500
     29 C30          5.0470     4.3990     0.2450 c3         1 2UU      -0.040800
     30 N31          0.0590    -2.8790     1.6770 nu         1 2UU      -0.720500
     31 O32         -1.1660    -4.4270     0.1050 o          1 2UU      -0.793300
     32 O33          0.4840    -1.4170     3.7150 o          1 2UU      -0.633300
     33 O34         -1.4790    -2.9620     3.6010 o          1 2UU      -0.633300
     34 O35         -0.9050    -4.2370    -2.0910 o          1 2UU      -0.793300
     35 O36         -3.6270     2.2950     0.3730 os         1 2UU      -0.263200
     36 S37         -0.5800    -2.0310     2.9330 sy         1 2UU       1.291200
     37 H1          -7.2500     1.4880    -3.2990 ha         1 2UU       0.129000
     38 H2           6.4980    -1.0260    -2.4350 ha         1 2UU       0.126000
     39 H3           7.7450     1.1160    -2.2270 ha         1 2UU       0.119000
     40 H4          -4.8580     1.6000    -3.9230 ha         1 2UU       0.131500
     41 H5          -7.9180     1.7420    -0.9310 ha         1 2UU       0.131500
     42 H6           4.2450    -1.2280    -1.5260 ha         1 2UU       0.152000
     43 H7           6.7430     3.0120    -1.0760 ha         1 2UU       0.120000
     44 H8           2.0530    -0.5010    -2.5800 ha         1 2UU       0.120000
     45 H9           1.3050     1.7130     0.8420 ha         1 2UU       0.141000
     46 H10          0.5810    -2.4480    -2.8100 ha         1 2UU       0.150000
     47 H11          2.5840     3.7830     1.1440 ha         1 2UU       0.122000
     48 H12         -3.1370     1.9630    -2.1820 ha         1 2UU       0.149000
     49 H13         -6.1970     2.1020     0.8130 ha         1 2UU       0.149000
     50 H14         -1.7280     2.6330     2.0270 ha         1 2UU       0.142000
     51 H15         -4.0480    -0.3540    -0.0170 ha         1 2UU       0.142000
     52 H16         -0.4260     0.8620     3.1310 ha         1 2UU       0.161000
     53 H17         -2.7560    -2.1070     1.0710 ha         1 2UU       0.161000
     54 H18          1.7490    -0.7900     1.6730 ha         1 2UU       0.147000
     55 H19          5.9970     4.2500     0.7620 hc         1 2UU       0.035367
     56 H20          5.2760     4.8620    -0.7170 hc         1 2UU       0.035367
     57 H21          4.4640     5.1130     0.8240 hc         1 2UU       0.035367
     58 H31         -0.5620    -3.6590     1.3120 hn         1 2UU       0.528800
     59 C29         -0.6720    -3.8900    -0.9300 c          1 2UU       0.928200
@<TRIPOS>BOND
     1     1     4 ar  
     2     1     5 ar  
     3     1    37 1   
     4     2     3 ar  
     5     2     6 ar  
     6     2    38 1   
     7     3     7 ar  
     8     3    39 1   
     9     4    12 ar  
    10     4    40 1   
    11     5    13 ar  
    12     5    41 1   
    13     6    19 ar  
    14     6    42 1   
    15     7    20 ar  
    16     7    43 1   
    17     8    10 ar  
    18     8    21 ar  
    19     8    44 1   
    20     9    11 ar  
    21     9    22 ar  
    22     9    45 1   
    23    10    23 ar  
    24    10    46 1   
    25    11    24 ar  
    26    11    47 1   
    27    12    26 ar  
    28    12    48 1   
    29    13    26 ar  
    30    13    49 1   
    31    14    16 ar  
    32    14    27 ar  
    33    14    50 1   
    34    15    17 ar  
    35    15    27 ar  
    36    15    51 1   
    37    16    28 ar  
    38    16    52 1   
    39    17    28 ar  
    40    17    53 1   
    41    18    21 ar  
    42    18    25 ar  
    43    18    54 1   
    44    19    20 ar  
    45    19    22 ar  
    46    20    24 ar  
    47    21    22 1   
    48    23    25 ar  
    49    23    59 1   
    50    24    29 1   
    51    25    30 1   
    52    26    35 1   
    53    27    35 1   
    54    28    36 1   
    55    29    55 1   
    56    29    56 1   
    57    29    57 1   
    58    30    36 1   
    59    30    58 1   
    60    31    59 1   
    61    32    36 2   
    62    33    36 2   
    63    34    59 1   
@<TRIPOS>SUBSTRUCTURE
     1 2UU         1 TEMP              0 ****  ****    0 ROOT
