@<TRIPOS>MOLECULE
2UU
   59    63     1     0     0
SMALL
No Charge or Current Charge


@<TRIPOS>ATOM
      1 C1          -3.7000     2.7400    -2.9950 ca         1 2UU      -0.115000
      2 C2           5.2360     0.3020    -2.3720 ca         1 2UU      -0.127000
      3 C3           5.7240     1.6140    -2.3260 ca         1 2UU      -0.113000
      4 C4          -2.6480     1.9540    -2.4940 ca         1 2UU      -0.103000
      5 C5          -4.6600     3.2730    -2.1170 ca         1 2UU      -0.103000
      6 C6           4.0190    -0.0160    -1.7520 ca         1 2UU      -0.079000
      7 C7           4.9990     2.6070    -1.6510 ca         1 2UU      -0.113000
      8 C8           1.0430    -1.3000    -1.7370 ca         1 2UU      -0.146000
      9 C9           1.3350     1.6620     0.2410 ca         1 2UU      -0.107000
     10 C10          0.4330    -2.5630    -1.7780 ca         1 2UU      -0.068000
     11 C11          1.8320     2.9690     0.3070 ca         1 2UU      -0.101000
     12 C12         -2.5560     1.6970    -1.1150 ca         1 2UU      -0.113500
     13 C13         -4.5700     3.0170    -0.7370 ca         1 2UU      -0.113500
     14 C14         -1.7520     1.1300     2.5620 ca         1 2UU      -0.190500
     15 C15         -3.1750    -0.3840     1.2940 ca         1 2UU      -0.190500
     16 C16         -1.0330     0.0360     3.0700 ca         1 2UU       0.023500
     17 C17         -2.4690    -1.4840     1.8070 ca         1 2UU       0.023500
     18 C18          1.1390    -1.4280     0.6770 ca         1 2UU      -0.161000
     19 C19          3.2650     0.9750    -1.0800 ca         1 2UU      -0.024000
     20 C20          3.7700     2.3040    -1.0180 ca         1 2UU      -0.029000
     21 C21          1.4150    -0.7140    -0.5090 cp         1 2UU      -0.045000
     22 C22          2.0260     0.6480    -0.4540 cp         1 2UU       0.004000
     23 C23          0.1540    -3.2720    -0.5860 ca         1 2UU      -0.174600
     24 C24          3.0430     3.3060    -0.3220 ca         1 2UU      -0.086300
     25 C25          0.5080    -2.6850     0.6540 ca         1 2UU       0.295000
     26 C26         -3.5250     2.2230    -0.2330 ca         1 2UU       0.101100
     27 C27         -2.8050     0.9210     1.6610 ca         1 2UU       0.173100
     28 C28         -1.3870    -1.2720     2.6830 ca         1 2UU      -0.323500
     29 C30          3.5370     4.7480    -0.2240 c3         1 2UU      -0.040800
     30 N31          0.2150    -3.3360     1.8440 nu         1 2UU      -0.914100
     31 O32         -1.1610    -5.0350     0.2860 o          1 2UU      -0.688000
     32 O33          0.7610    -2.2270     4.0000 o          1 2UU      -0.562500
     33 O34         -1.2910    -3.7390     3.6930 o          1 2UU      -0.562500
     34 O35         -0.4200    -5.2530    -1.7200 o          1 2UU      -0.688000
     35 O36         -3.4590     2.0030     1.1260 os         1 2UU      -0.263200
     36 S37         -0.4080    -2.6680     3.2340 sy         1 2UU       1.149600
     37 H1          -3.7700     2.9390    -4.0620 ha         1 2UU       0.111000
     38 H2           5.8030    -0.4710    -2.8870 ha         1 2UU       0.108000
     39 H3           6.6680     1.8610    -2.8060 ha         1 2UU       0.101000
     40 H4          -1.9020     1.5460    -3.1730 ha         1 2UU       0.113500
     41 H5          -5.4720     3.8850    -2.5050 ha         1 2UU       0.113500
     42 H6           3.6750    -1.0460    -1.7940 ha         1 2UU       0.134000
     43 H7           5.4110     3.6120    -1.6280 ha         1 2UU       0.102000
     44 H8           1.2250    -0.7640    -2.6660 ha         1 2UU       0.102000
     45 H9           0.3910     1.4290     0.7240 ha         1 2UU       0.123000
     46 H10          0.1600    -2.9830    -2.7440 ha         1 2UU       0.132000
     47 H11          1.2650     3.7240     0.8460 ha         1 2UU       0.104000
     48 H12         -1.7320     1.0950    -0.7410 ha         1 2UU       0.131000
     49 H13         -5.3100     3.4310    -0.0570 ha         1 2UU       0.131000
     50 H14         -1.4740     2.1420     2.8440 ha         1 2UU       0.124000
     51 H15         -3.9960    -0.5420     0.6010 ha         1 2UU       0.124000
     52 H16         -0.1950     0.2120     3.7440 ha         1 2UU       0.143000
     53 H17         -2.7450    -2.4930     1.4990 ha         1 2UU       0.143000
     54 H18          1.4220    -0.9840     1.6260 ha         1 2UU       0.129000
     55 H19          4.5110     4.7990     0.2760 hc         1 2UU       0.035367
     56 H20          3.6390     5.1990    -1.2180 hc         1 2UU       0.035367
     57 H21          2.8460     5.3790     0.3490 hc         1 2UU       0.035367
     58 H31         -0.4090    -4.1300     1.6990 hn         1 2UU       0.584000
     59 C29         -0.5240    -4.6250    -0.6770 c          1 2UU       0.717600
@<TRIPOS>BOND
     1     1     4 ar  
     2     1     5 ar  
     3     1    37 1   
     4     2     3 ar  
     5     2     6 ar  
     6     2    38 1   
     7     3     7 ar  
     8     3    39 1   
     9     4    12 ar  
    10     4    40 1   
    11     5    13 ar  
    12     5    41 1   
    13     6    19 ar  
    14     6    42 1   
    15     7    20 ar  
    16     7    43 1   
    17     8    10 ar  
    18     8    21 ar  
    19     8    44 1   
    20     9    11 ar  
    21     9    22 ar  
    22     9    45 1   
    23    10    23 ar  
    24    10    46 1   
    25    11    24 ar  
    26    11    47 1   
    27    12    26 ar  
    28    12    48 1   
    29    13    26 ar  
    30    13    49 1   
    31    14    16 ar  
    32    14    27 ar  
    33    14    50 1   
    34    15    17 ar  
    35    15    27 ar  
    36    15    51 1   
    37    16    28 ar  
    38    16    52 1   
    39    17    28 ar  
    40    17    53 1   
    41    18    21 ar  
    42    18    25 ar  
    43    18    54 1   
    44    19    20 ar  
    45    19    22 ar  
    46    20    24 ar  
    47    21    22 1   
    48    23    25 ar  
    49    23    59 1   
    50    24    29 1   
    51    25    30 1   
    52    26    35 1   
    53    27    35 1   
    54    28    36 1   
    55    29    55 1   
    56    29    56 1   
    57    29    57 1   
    58    30    36 1   
    59    30    58 1   
    60    31    59 1   
    61    32    36 2   
    62    33    36 2   
    63    34    59 1   
@<TRIPOS>SUBSTRUCTURE
     1 2UU         1 TEMP              0 ****  ****    0 ROOT
