@<TRIPOS>MOLECULE
2UV
   34    35     1     0     0
SMALL
abcg2


@<TRIPOS>ATOM
      1 C1           1.6360     1.3370    -0.5490 ca         1 2UV      -0.117000
      2 C2           1.2710    -0.9390     0.0790 ca         1 2UV      -0.117000
      3 C3          -1.1650     1.8340     0.4460 ca         1 2UV      -0.057000
      4 C4           2.9920     1.0800    -0.6820 ca         1 2UV      -0.109000
      5 C5           2.6270    -1.1920    -0.0590 ca         1 2UV      -0.109000
      6 C6          -2.5150     2.0920     0.5830 ca         1 2UV      -0.221000
      7 C7          -1.6490    -0.3610    -0.3550 ca         1 2UV      -0.011000
      8 C8           0.7450     0.3320    -0.1650 cp         1 2UV       0.026000
      9 C9          -0.6990     0.6010    -0.0250 cp         1 2UV      -0.158000
     10 C10         -3.0130    -0.1310    -0.2300 ca         1 2UV      -0.277600
     11 C11          3.5140    -0.1890    -0.4420 ca         1 2UV      -0.111300
     12 C12         -3.4590     1.1160     0.2480 ca         1 2UV       0.225100
     13 C13         -4.0130    -1.1940    -0.6090 c          1 2UV       0.724600
     14 C14          7.2170    -0.4470     0.6660 c3         1 2UV      -0.088100
     15 C15          4.9890    -0.4550    -0.5440 c3         1 2UV      -0.022100
     16 C16          5.7230    -0.1800     0.7710 c3         1 2UV      -0.076400
     17 O17         -3.6120    -2.2770    -1.0410 o          1 2UV      -0.697500
     18 O18         -4.7560     1.3740     0.3830 oh         1 2UV      -0.627100
     19 O19         -5.2340    -0.8760    -0.4480 o          1 2UV      -0.697500
     20 H1           1.2650     2.3300    -0.7710 ha         1 2UV       0.116000
     21 H2           0.6160    -1.7410     0.3960 ha         1 2UV       0.116000
     22 H3          -0.4570     2.6040     0.7290 ha         1 2UV       0.085000
     23 H4           3.6540     1.8820    -0.9900 ha         1 2UV       0.097000
     24 H5           3.0030    -2.1880     0.1430 ha         1 2UV       0.097000
     25 H6          -2.8510     3.0510     0.9590 ha         1 2UV       0.103000
     26 H7          -1.3310    -1.3200    -0.7450 ha         1 2UV       0.123000
     27 H8           7.7260    -0.2390     1.6070 hc         1 2UV       0.026033
     28 H9           7.4130    -1.4870     0.4030 hc         1 2UV       0.026033
     29 H10          7.6740     0.1790    -0.1040 hc         1 2UV       0.026033
     30 H11          5.1580    -1.4960    -0.8360 hc         1 2UV       0.036700
     31 H12          5.4260     0.1640    -1.3330 hc         1 2UV       0.036700
     32 H13          5.2880    -0.7980     1.5610 hc         1 2UV       0.041700
     33 H14          5.5510     0.8590     1.0670 hc         1 2UV       0.041700
     34 H16         -5.2020     0.5030     0.0680 ho         1 2UV       0.550000
@<TRIPOS>BOND
     1     1     4 ar  
     2     1     8 ar  
     3     1    20 1   
     4     2     5 ar  
     5     2     8 ar  
     6     2    21 1   
     7     3     6 ar  
     8     3     9 ar  
     9     3    22 1   
    10     4    11 ar  
    11     4    23 1   
    12     5    11 ar  
    13     5    24 1   
    14     6    12 ar  
    15     6    25 1   
    16     7     9 ar  
    17     7    10 ar  
    18     7    26 1   
    19     8     9 1   
    20    10    12 ar  
    21    10    13 1   
    22    11    15 1   
    23    12    18 1   
    24    13    17 1   
    25    13    19 1   
    26    14    16 1   
    27    14    27 1   
    28    14    28 1   
    29    14    29 1   
    30    15    16 1   
    31    15    30 1   
    32    15    31 1   
    33    16    32 1   
    34    16    33 1   
    35    18    34 1   
@<TRIPOS>SUBSTRUCTURE
     1 2UV         1 TEMP              0 ****  ****    0 ROOT
