@<TRIPOS>MOLECULE
2UV
   34    35     1     0     0
SMALL
No Charge or Current Charge


@<TRIPOS>ATOM
      1 C1           1.6380     1.3580    -0.5510 ca         1 2UV      -0.117000
      2 C2           1.2720    -0.9490     0.1020 ca         1 2UV      -0.117000
      3 C3          -1.1970     1.8590     0.4540 ca         1 2UV      -0.057000
      4 C4           3.0150     1.1040    -0.6810 ca         1 2UV      -0.109000
      5 C5           2.6480    -1.2040    -0.0260 ca         1 2UV      -0.109000
      6 C6          -2.5700     2.1090     0.5810 ca         1 2UV      -0.221000
      7 C7          -1.6930    -0.3740    -0.3630 ca         1 2UV      -0.011000
      8 C8           0.7370     0.3370    -0.1580 cp         1 2UV       0.026000
      9 C9          -0.7300     0.6100    -0.0210 cp         1 2UV      -0.158000
     10 C10         -3.0830    -0.1350    -0.2400 ca         1 2UV      -0.277600
     11 C11          3.5270    -0.1800    -0.4200 ca         1 2UV      -0.111300
     12 C12         -3.5040     1.1240     0.2390 ca         1 2UV       0.225100
     13 C13         -4.0740    -1.2120    -0.6190 c          1 2UV       0.724600
     14 C14          7.2920    -0.4660     0.6560 c3         1 2UV      -0.088100
     15 C15          5.0190    -0.4550    -0.5550 c3         1 2UV      -0.022100
     16 C16          5.7790    -0.1950     0.7630 c3         1 2UV      -0.076400
     17 O17         -3.6510    -2.2830    -1.0250 o          1 2UV      -0.697500
     18 O18         -4.8250     1.4010     0.3750 oh         1 2UV      -0.627100
     19 O19         -5.2670    -0.9620    -0.5010 o          1 2UV      -0.697500
     20 H1           1.2660     2.3550    -0.7710 ha         1 2UV       0.116000
     21 H2           0.6170    -1.7550     0.4220 ha         1 2UV       0.116000
     22 H3          -0.4900     2.6350     0.7380 ha         1 2UV       0.085000
     23 H4           3.6820     1.9070    -0.9850 ha         1 2UV       0.097000
     24 H5           3.0310    -2.2000     0.1860 ha         1 2UV       0.097000
     25 H6          -2.9110     3.0720     0.9510 ha         1 2UV       0.103000
     26 H7          -1.3470    -1.3330    -0.7440 ha         1 2UV       0.123000
     27 H8           7.7850    -0.2670     1.6150 hc         1 2UV       0.026033
     28 H9           7.4810    -1.5110     0.3830 hc         1 2UV       0.026033
     29 H10          7.7480     0.1800    -0.1040 hc         1 2UV       0.026033
     30 H11          5.1840    -1.4940    -0.8660 hc         1 2UV       0.036700
     31 H12          5.4480     0.1730    -1.3460 hc         1 2UV       0.036700
     32 H13          5.3570    -0.8290     1.5540 hc         1 2UV       0.041700
     33 H14          5.6220     0.8460     1.0720 hc         1 2UV       0.041700
     34 H16         -5.2760     0.5610     0.0710 ho         1 2UV       0.550000
@<TRIPOS>BOND
     1     1     4 ar  
     2     1     8 ar  
     3     1    20 1   
     4     2     5 ar  
     5     2     8 ar  
     6     2    21 1   
     7     3     6 ar  
     8     3     9 ar  
     9     3    22 1   
    10     4    11 ar  
    11     4    23 1   
    12     5    11 ar  
    13     5    24 1   
    14     6    12 ar  
    15     6    25 1   
    16     7     9 ar  
    17     7    10 ar  
    18     7    26 1   
    19     8     9 1   
    20    10    12 ar  
    21    10    13 1   
    22    11    15 1   
    23    12    18 1   
    24    13    17 1   
    25    13    19 1   
    26    14    16 1   
    27    14    27 1   
    28    14    28 1   
    29    14    29 1   
    30    15    16 1   
    31    15    30 1   
    32    15    31 1   
    33    16    32 1   
    34    16    33 1   
    35    18    34 1   
@<TRIPOS>SUBSTRUCTURE
     1 2UV         1 TEMP              0 ****  ****    0 ROOT
