@<TRIPOS>MOLECULE
2UX
   46    48     1     0     0
SMALL
No Charge or Current Charge


@<TRIPOS>ATOM
      1 C19         -5.7440    -0.5390    -1.2850 ca         1 2UX       0.069000
      2 C18         -6.3880    -1.7490    -1.0040 ca         1 2UX      -0.266000
      3 C17         -6.5220    -2.1270     0.3290 ca         1 2UX       0.673900
      4 N2          -7.1050    -3.2550     0.7190 nv         1 2UX      -1.073900
      5 N1          -6.0820    -1.4440     1.3700 nb         1 2UX      -0.775000
      6 C16         -5.4600    -0.2730     1.1100 ca         1 2UX       0.499900
      7 C15         -5.2800     0.2060    -0.1890 ca         1 2UX      -0.416500
      8 S1          -4.4300     1.7510    -0.3990 sy         1 2UX       1.051000
      9 O2          -4.7010     2.2230    -1.7630 o          1 2UX      -0.532000
     10 O3          -4.7330     2.5850     0.7720 o          1 2UX      -0.532000
     11 C5          -2.6950     1.2670    -0.3060 ca         1 2UX      -0.260500
     12 C6          -1.9990     1.3320     0.9180 ca         1 2UX      -0.015500
     13 C1          -0.6510     0.9390     0.9830 ca         1 2UX      -0.120500
     14 C4          -2.0310     0.8020    -1.4580 ca         1 2UX      -0.015500
     15 C3          -0.6830     0.4120    -1.3850 ca         1 2UX      -0.120500
     16 C2           0.0360     0.4730    -0.1650 cp         1 2UX       0.014000
     17 C7           1.4740     0.0560    -0.0930 cp         1 2UX      -0.033000
     18 C12          1.9980    -0.5780     1.0580 ca         1 2UX      -0.095000
     19 C11          3.3460    -0.9690     1.1270 ca         1 2UX      -0.088000
     20 C8           2.3610     0.2870    -1.1700 ca         1 2UX      -0.095000
     21 C9           3.7100    -0.1010    -1.1050 ca         1 2UX      -0.088000
     22 C10          4.2280    -0.7490     0.0420 ca         1 2UX      -0.122300
     23 C13          5.7200    -1.1660     0.1350 c3         1 2UX       0.193300
     24 C20          6.5560    -0.0310     0.8390 c3         1 2UX       0.262000
     25 F2           7.8650    -0.3640     0.9380 f          1 2UX      -0.112667
     26 F3           6.4820     1.1330     0.1520 f          1 2UX      -0.112667
     27 F1           6.1030     0.2070     2.0930 f          1 2UX      -0.112667
     28 C14          6.3210    -1.5130    -1.2550 c3         1 2UX      -0.085100
     29 O1           5.8180    -2.3850     0.8970 oh         1 2UX      -0.637000
     30 H1          -5.6140    -0.2010    -2.3130 ha         1 2UX       0.135000
     31 H2          -6.7750    -2.3740    -1.8030 ha         1 2UX       0.125000
     32 H3          -7.1130    -4.0150     0.0480 hn         1 2UX       0.501000
     33 H4          -6.9050    -3.5120     1.6770 hn         1 2UX       0.501000
     34 H5          -5.0960     0.2790     1.9770 h4         1 2UX       0.038100
     35 H6          -2.4930     1.6860     1.8210 ha         1 2UX       0.136500
     36 H7          -0.1310     1.0120     1.9340 ha         1 2UX       0.120500
     37 H8          -2.5550     0.7350    -2.4100 ha         1 2UX       0.136500
     38 H9          -0.1960     0.0450    -2.2840 ha         1 2UX       0.120500
     39 H10          1.3510    -0.7810     1.9070 ha         1 2UX       0.121000
     40 H11          3.6950    -1.4460     2.0390 ha         1 2UX       0.120500
     41 H12          2.0050     0.7920    -2.0650 ha         1 2UX       0.121000
     42 H13          4.3440     0.1230    -1.9580 ha         1 2UX       0.120500
     43 H14          6.4500    -0.6200    -1.8780 hc         1 2UX       0.061700
     44 H15          7.3080    -1.9780    -1.1490 hc         1 2UX       0.061700
     45 H16          5.6760    -2.2190    -1.7910 hc         1 2UX       0.061700
     46 H17          5.6980    -2.1470     1.8410 ho         1 2UX       0.461000
@<TRIPOS>BOND
     1     1     2 ar  
     2     1     7 ar  
     3     1    30 1   
     4     2     3 ar  
     5     2    31 1   
     6     3     4 1   
     7     3     5 ar  
     8     4    32 1   
     9     4    33 1   
    10     5     6 ar  
    11     6     7 ar  
    12     6    34 1   
    13     7     8 1   
    14     8     9 2   
    15     8    10 2   
    16     8    11 1   
    17    11    12 ar  
    18    11    14 ar  
    19    12    13 ar  
    20    12    35 1   
    21    13    16 ar  
    22    13    36 1   
    23    14    15 ar  
    24    14    37 1   
    25    15    16 ar  
    26    15    38 1   
    27    16    17 1   
    28    17    18 ar  
    29    17    20 ar  
    30    18    19 ar  
    31    18    39 1   
    32    19    22 ar  
    33    19    40 1   
    34    20    21 ar  
    35    20    41 1   
    36    21    22 ar  
    37    21    42 1   
    38    22    23 1   
    39    23    24 1   
    40    23    28 1   
    41    23    29 1   
    42    24    25 1   
    43    24    26 1   
    44    24    27 1   
    45    28    43 1   
    46    28    44 1   
    47    28    45 1   
    48    29    46 1   
@<TRIPOS>SUBSTRUCTURE
     1 2UX         1 TEMP              0 ****  ****    0 ROOT
