@<TRIPOS>MOLECULE
2UX
   46    48     1     0     0
SMALL
abcg2


@<TRIPOS>ATOM
      1 C19         -5.5130    -0.5780    -1.2380 ca         1 2UX       0.069000
      2 C18         -6.1670    -1.7660    -1.0600 ca         1 2UX      -0.266000
      3 C17         -6.4790    -2.1800     0.2560 ca         1 2UX       0.673900
      4 N2          -7.1220    -3.3320     0.4810 nv         1 2UX      -1.073900
      5 N1          -6.1620    -1.4390     1.3260 nb         1 2UX      -0.775000
      6 C16         -5.5330    -0.2940     1.1390 ca         1 2UX       0.499900
      7 C15         -5.1790     0.1860    -0.1130 ca         1 2UX      -0.416500
      8 S1          -4.3190     1.7020    -0.2780 sy         1 2UX       1.051000
      9 O2          -4.5930     2.2350    -1.6100 o          1 2UX      -0.532000
     10 O3          -4.6020     2.5180     0.9000 o          1 2UX      -0.532000
     11 C5          -2.6050     1.2500    -0.2160 ca         1 2UX      -0.260500
     12 C6          -1.9500     1.2340     1.0080 ca         1 2UX      -0.015500
     13 C1          -0.6210     0.8550     1.0570 ca         1 2UX      -0.120500
     14 C4          -1.9430     0.9010    -1.3850 ca         1 2UX      -0.015500
     15 C3          -0.6130     0.5210    -1.3210 ca         1 2UX      -0.120500
     16 C2           0.0670     0.4900    -0.1020 cp         1 2UX       0.014000
     17 C7           1.4830     0.0850    -0.0350 cp         1 2UX      -0.033000
     18 C12          1.9680    -0.6500     1.0430 ca         1 2UX      -0.095000
     19 C11          3.2990    -1.0300     1.1090 ca         1 2UX      -0.088000
     20 C8           2.3790     0.4200    -1.0500 ca         1 2UX      -0.095000
     21 C9           3.7100     0.0460    -0.9800 ca         1 2UX      -0.088000
     22 C10          4.1970    -0.6800     0.1060 ca         1 2UX      -0.122300
     23 C13          5.6600    -1.1160     0.1760 c3         1 2UX       0.193300
     24 C20          6.5500     0.1200     0.4040 c3         1 2UX       0.262000
     25 F2           7.8380    -0.2140     0.5220 f          1 2UX      -0.112667
     26 F3           6.4680     1.0110    -0.5890 f          1 2UX      -0.112667
     27 F1           6.2060     0.7570     1.5340 f          1 2UX      -0.112667
     28 C14          6.0720    -1.8380    -1.1050 c3         1 2UX      -0.085100
     29 O1           5.9070    -2.0090     1.2270 oh         1 2UX      -0.637000
     30 H1          -5.2680    -0.2420    -2.2370 ha         1 2UX       0.135000
     31 H2          -6.4420    -2.3790    -1.9070 ha         1 2UX       0.125000
     32 H3          -7.3320    -3.9700    -0.2670 hn         1 2UX       0.501000
     33 H4          -7.2680    -3.6490     1.4230 hn         1 2UX       0.501000
     34 H5          -5.3000     0.2720     2.0350 h4         1 2UX       0.038100
     35 H6          -2.4570     1.5230     1.9180 ha         1 2UX       0.136500
     36 H7          -0.1080     0.8670     2.0100 ha         1 2UX       0.120500
     37 H8          -2.4490     0.9190    -2.3410 ha         1 2UX       0.136500
     38 H9          -0.1080     0.2320    -2.2330 ha         1 2UX       0.120500
     39 H10          1.2990    -0.9590     1.8370 ha         1 2UX       0.121000
     40 H11          3.6070    -1.6240     1.9600 ha         1 2UX       0.120500
     41 H12          2.0450     0.9980    -1.9030 ha         1 2UX       0.121000
     42 H13          4.3560     0.3300    -1.7990 ha         1 2UX       0.120500
     43 H14          6.0010    -1.1980    -1.9810 hc         1 2UX       0.061700
     44 H15          7.0950    -2.2080    -1.0360 hc         1 2UX       0.061700
     45 H16          5.4110    -2.6890    -1.2610 hc         1 2UX       0.061700
     46 H17          5.6770    -1.6180     2.0780 ho         1 2UX       0.461000
@<TRIPOS>BOND
     1     1     2 ar  
     2     1     7 ar  
     3     1    30 1   
     4     2     3 ar  
     5     2    31 1   
     6     3     4 1   
     7     3     5 ar  
     8     4    32 1   
     9     4    33 1   
    10     5     6 ar  
    11     6     7 ar  
    12     6    34 1   
    13     7     8 1   
    14     8     9 2   
    15     8    10 2   
    16     8    11 1   
    17    11    12 ar  
    18    11    14 ar  
    19    12    13 ar  
    20    12    35 1   
    21    13    16 ar  
    22    13    36 1   
    23    14    15 ar  
    24    14    37 1   
    25    15    16 ar  
    26    15    38 1   
    27    16    17 1   
    28    17    18 ar  
    29    17    20 ar  
    30    18    19 ar  
    31    18    39 1   
    32    19    22 ar  
    33    19    40 1   
    34    20    21 ar  
    35    20    41 1   
    36    21    22 ar  
    37    21    42 1   
    38    22    23 1   
    39    23    24 1   
    40    23    28 1   
    41    23    29 1   
    42    24    25 1   
    43    24    26 1   
    44    24    27 1   
    45    28    43 1   
    46    28    44 1   
    47    28    45 1   
    48    29    46 1   
@<TRIPOS>SUBSTRUCTURE
     1 2UX         1 TEMP              0 ****  ****    0 ROOT
