@<TRIPOS>MOLECULE
2UY
   56    59     1     0     0
SMALL
abcg2


@<TRIPOS>ATOM
      1 C18         37.5060   -18.5530   -14.0670 ca         1 2UY      -0.138000
      2 C19         37.5780   -17.6630   -13.0040 ca         1 2UY      -0.087500
      3 C20         38.8130   -17.2490   -12.5130 ca         1 2UY      -0.133000
      4 C21         39.9750   -17.7280   -13.1120 ca         1 2UY      -0.087500
      5 C22         39.9150   -18.6120   -14.1810 ca         1 2UY      -0.138000
      6 C17         38.6740   -19.0420   -14.6640 ca         1 2UY       0.308000
      7 N3          38.5290   -19.8960   -15.7650 nu         1 2UY      -0.944900
      8 C6          39.3670   -20.8820   -16.1880 ca         1 2UY       0.649900
      9 N2          40.3930   -21.2210   -15.4060 nb         1 2UY      -0.691000
     10 C10         41.2110   -22.1840   -15.7900 ca         1 2UY       0.237900
     11 S1          42.5780   -22.4680   -14.6560 sy         1 2UY       0.998600
     12 O2          42.0370   -22.7000   -13.3310 o          1 2UY      -0.526000
     13 O3          43.4260   -23.4840   -15.2500 o          1 2UY      -0.526000
     14 C12         43.4130   -20.9310   -14.6550 ca         1 2UY      -0.412500
     15 C16         44.2290   -20.5620   -15.7350 ca         1 2UY       0.065000
     16 C15         44.8160   -19.3250   -15.7260 ca         1 2UY      -0.261000
     17 C14         44.5720   -18.4620   -14.6300 ca         1 2UY       0.667900
     18 N5          45.1060   -17.2250   -14.5900 nv         1 2UY      -1.074900
     19 N4          43.7880   -18.8230   -13.5950 nb         1 2UY      -0.774000
     20 C13         43.2220   -20.0240   -13.6210 ca         1 2UY       0.507900
     21 C9          41.0890   -22.9160   -16.9510 ca         1 2UY      -0.147000
     22 C8          40.0200   -22.5690   -17.7760 ca         1 2UY      -0.031000
     23 C7          39.1480   -21.5410   -17.4460 cp         1 2UY      -0.240500
     24 C4          38.0790   -21.1530   -18.3910 cp         1 2UY       0.442500
     25 C3          38.2030   -21.3930   -19.7650 ca         1 2UY      -0.156000
     26 C2          37.1750   -21.0360   -20.6150 ca         1 2UY      -0.038000
     27 N1          36.9860   -20.5470   -17.9050 nb         1 2UY      -0.709000
     28 C5          35.9990   -20.2020   -18.7310 ca         1 2UY       0.381900
     29 C1          36.0240   -20.4350   -20.1010 ca         1 2UY      -0.188300
     30 C11         34.8660   -20.0060   -20.9980 c3         1 2UY       0.199300
     31 C24         34.1580   -21.2580   -21.5710 c3         1 2UY       0.253000
     32 F2          33.6380   -22.0120   -20.5760 f          1 2UY      -0.110000
     33 F3          34.9820   -22.0520   -22.2800 f          1 2UY      -0.110000
     34 F1          33.1380   -20.9250   -22.3830 f          1 2UY      -0.110000
     35 C23         35.3460   -19.1100   -22.1370 c3         1 2UY      -0.085100
     36 O1          33.8820   -19.2650   -20.2980 oh         1 2UY      -0.637000
     37 H1          36.5440   -18.8810   -14.4430 ha         1 2UY       0.120500
     38 H2          36.6630   -17.2990   -12.5530 ha         1 2UY       0.115000
     39 H3          38.8690   -16.5620   -11.6790 ha         1 2UY       0.114000
     40 H4          40.9450   -17.4070   -12.7500 ha         1 2UY       0.115000
     41 H5          40.8230   -18.9650   -14.6400 ha         1 2UY       0.120500
     42 H6          37.6560   -19.8530   -16.2880 hn         1 2UY       0.539000
     43 H7          44.3910   -21.2440   -16.5600 ha         1 2UY       0.130000
     44 H8          45.4550   -19.0010   -16.5370 ha         1 2UY       0.124000
     45 H9          45.0010   -16.6720   -13.7550 hn         1 2UY       0.500000
     46 H10         45.7830   -16.9340   -15.2740 hn         1 2UY       0.500000
     47 H11         42.5870   -20.2830   -12.7820 h4         1 2UY       0.051100
     48 H12         41.7830   -23.7000   -17.2070 ha         1 2UY       0.154000
     49 H13         39.8730   -23.1190   -18.6950 ha         1 2UY       0.119000
     50 H14         39.1020   -21.8320   -20.1720 ha         1 2UY       0.132000
     51 H15         37.2820   -21.2170   -21.6740 ha         1 2UY       0.132000
     52 H16         35.1580   -19.7020   -18.2680 h4         1 2UY       0.027100
     53 H17         35.8330   -18.2360   -21.7050 hc         1 2UY       0.064367
     54 H18         36.0580   -19.6260   -22.7770 hc         1 2UY       0.064367
     55 H19         34.4970   -18.7860   -22.7370 hc         1 2UY       0.064367
     56 H20         33.4870   -19.8040   -19.5990 ho         1 2UY       0.461000
@<TRIPOS>BOND
     1     1     2 ar  
     2     1     6 ar  
     3     1    37 1   
     4     2     3 ar  
     5     2    38 1   
     6     3     4 ar  
     7     3    39 1   
     8     4     5 ar  
     9     4    40 1   
    10     5     6 ar  
    11     5    41 1   
    12     6     7 1   
    13     7     8 1   
    14     7    42 1   
    15     8     9 ar  
    16     8    23 ar  
    17     9    10 ar  
    18    10    11 1   
    19    10    21 ar  
    20    11    12 2   
    21    11    13 2   
    22    11    14 1   
    23    14    15 ar  
    24    14    20 ar  
    25    15    16 ar  
    26    15    43 1   
    27    16    17 ar  
    28    16    44 1   
    29    17    18 1   
    30    17    19 ar  
    31    18    45 1   
    32    18    46 1   
    33    19    20 ar  
    34    20    47 1   
    35    21    22 ar  
    36    21    48 1   
    37    22    23 ar  
    38    22    49 1   
    39    23    24 1   
    40    24    25 ar  
    41    24    27 ar  
    42    25    26 ar  
    43    25    50 1   
    44    26    29 ar  
    45    26    51 1   
    46    27    28 ar  
    47    28    29 ar  
    48    28    52 1   
    49    29    30 1   
    50    30    31 1   
    51    30    35 1   
    52    30    36 1   
    53    31    32 1   
    54    31    33 1   
    55    31    34 1   
    56    35    53 1   
    57    35    54 1   
    58    35    55 1   
    59    36    56 1   
@<TRIPOS>SUBSTRUCTURE
     1 2UY         1 TEMP              0 ****  ****    0 ROOT
