@<TRIPOS>MOLECULE
2UY
   56    59     1     0     0
SMALL
No Charge or Current Charge


@<TRIPOS>ATOM
      1 C18         37.5270   -18.5530   -14.2400 ca         1 2UY      -0.138000
      2 C19         37.5390   -17.6210   -13.1860 ca         1 2UY      -0.087500
      3 C20         38.7550   -17.0640   -12.7570 ca         1 2UY      -0.133000
      4 C21         39.9550   -17.4310   -13.3870 ca         1 2UY      -0.087500
      5 C22         39.9380   -18.3620   -14.4410 ca         1 2UY      -0.138000
      6 C17         38.7260   -18.9420   -14.8630 ca         1 2UY       0.308000
      7 N3          38.6690   -19.8540   -15.9160 nu         1 2UY      -0.944900
      8 C6          39.5030   -20.8230   -16.4210 ca         1 2UY       0.649900
      9 N2          40.5240   -21.1370   -15.6140 nb         1 2UY      -0.691000
     10 C10         41.4090   -22.0970   -16.0110 ca         1 2UY       0.237900
     11 S1          42.8240   -22.5310   -14.8990 sy         1 2UY       0.998600
     12 O2          42.2760   -22.9060   -13.5860 o          1 2UY      -0.526000
     13 O3          43.7370   -23.4400   -15.6110 o          1 2UY      -0.526000
     14 C12         43.6790   -20.9840   -14.6520 ca         1 2UY      -0.412500
     15 C16         44.8670   -20.6720   -15.3320 ca         1 2UY       0.065000
     16 C15         45.4420   -19.4250   -15.0670 ca         1 2UY      -0.261000
     17 C14         44.8010   -18.5860   -14.1600 ca         1 2UY       0.667900
     18 N5          45.2550   -17.3860   -13.8180 nv         1 2UY      -1.074900
     19 N4          43.6840   -18.8630   -13.5120 nb         1 2UY      -0.774000
     20 C13         43.1170   -20.0640   -13.7630 ca         1 2UY       0.507900
     21 C9          41.2650   -22.7550   -17.2490 ca         1 2UY      -0.147000
     22 C8          40.1850   -22.4320   -18.0820 ca         1 2UY      -0.031000
     23 C7          39.2570   -21.4430   -17.6700 cp         1 2UY      -0.240500
     24 C4          38.0960   -21.0840   -18.5430 cp         1 2UY       0.442500
     25 C3          38.1930   -21.1110   -19.9530 ca         1 2UY      -0.156000
     26 C2          37.0790   -20.7950   -20.7460 ca         1 2UY      -0.038000
     27 N1          36.9330   -20.7590   -17.9370 nb         1 2UY      -0.709000
     28 C5          35.8540   -20.4570   -18.6960 ca         1 2UY       0.381900
     29 C1          35.8680   -20.4490   -20.1080 ca         1 2UY      -0.188300
     30 C11         34.5810   -20.1080   -20.8880 c3         1 2UY       0.199300
     31 C24         33.6420   -21.3710   -20.9680 c3         1 2UY       0.253000
     32 F2          33.3000   -21.8180   -19.7360 f          1 2UY      -0.110000
     33 F3          34.2490   -22.3930   -21.6160 f          1 2UY      -0.110000
     34 F1          32.4930   -21.0920   -21.6300 f          1 2UY      -0.110000
     35 C23         34.8820   -19.5490   -22.3060 c3         1 2UY      -0.085100
     36 O1          33.9100   -19.0470   -20.1860 oh         1 2UY      -0.637000
     37 H1          36.5820   -18.9790   -14.5660 ha         1 2UY       0.120500
     38 H2          36.6070   -17.3320   -12.7040 ha         1 2UY       0.115000
     39 H3          38.7660   -16.3430   -11.9420 ha         1 2UY       0.114000
     40 H4          40.8970   -16.9920   -13.0660 ha         1 2UY       0.115000
     41 H5          40.8670   -18.6180   -14.9380 ha         1 2UY       0.120500
     42 H6          37.7660   -19.9110   -16.3940 hn         1 2UY       0.539000
     43 H7          45.3300   -21.3630   -16.0370 ha         1 2UY       0.130000
     44 H8          46.3610   -19.1180   -15.5570 ha         1 2UY       0.124000
     45 H9          44.8260   -17.0180   -12.9790 hn         1 2UY       0.500000
     46 H10         46.2520   -17.2290   -13.9110 hn         1 2UY       0.500000
     47 H11         42.1910   -20.2790   -13.2280 h4         1 2UY       0.051100
     48 H12         41.9760   -23.5180   -17.5560 ha         1 2UY       0.154000
     49 H13         40.0630   -22.9580   -19.0260 ha         1 2UY       0.119000
     50 H14         39.1330   -21.3680   -20.4300 ha         1 2UY       0.132000
     51 H15         37.1740   -20.8320   -21.8280 ha         1 2UY       0.132000
     52 H16         34.9470   -20.2180   -18.1420 h4         1 2UY       0.027100
     53 H17         35.6030   -18.7240   -22.2530 hc         1 2UY       0.064367
     54 H18         35.2910   -20.3220   -22.9670 hc         1 2UY       0.064367
     55 H19         33.9710   -19.1650   -22.7830 hc         1 2UY       0.064367
     56 H20         33.0570   -18.8850   -20.6440 ho         1 2UY       0.461000
@<TRIPOS>BOND
     1     1     2 ar  
     2     1     6 ar  
     3     1    37 1   
     4     2     3 ar  
     5     2    38 1   
     6     3     4 ar  
     7     3    39 1   
     8     4     5 ar  
     9     4    40 1   
    10     5     6 ar  
    11     5    41 1   
    12     6     7 1   
    13     7     8 1   
    14     7    42 1   
    15     8     9 ar  
    16     8    23 ar  
    17     9    10 ar  
    18    10    11 1   
    19    10    21 ar  
    20    11    12 2   
    21    11    13 2   
    22    11    14 1   
    23    14    15 ar  
    24    14    20 ar  
    25    15    16 ar  
    26    15    43 1   
    27    16    17 ar  
    28    16    44 1   
    29    17    18 1   
    30    17    19 ar  
    31    18    45 1   
    32    18    46 1   
    33    19    20 ar  
    34    20    47 1   
    35    21    22 ar  
    36    21    48 1   
    37    22    23 ar  
    38    22    49 1   
    39    23    24 1   
    40    24    25 ar  
    41    24    27 ar  
    42    25    26 ar  
    43    25    50 1   
    44    26    29 ar  
    45    26    51 1   
    46    27    28 ar  
    47    28    29 ar  
    48    28    52 1   
    49    29    30 1   
    50    30    31 1   
    51    30    35 1   
    52    30    36 1   
    53    31    32 1   
    54    31    33 1   
    55    31    34 1   
    56    35    53 1   
    57    35    54 1   
    58    35    55 1   
    59    36    56 1   
@<TRIPOS>SUBSTRUCTURE
     1 2UY         1 TEMP              0 ****  ****    0 ROOT
