@<TRIPOS>MOLECULE
2UZ
   22    22     1     0     0
SMALL
No Charge or Current Charge


@<TRIPOS>ATOM
      1 O            3.3210    -0.2230     1.3110 o          1 2UZ      -0.737500
      2 C            3.1180    -0.2540     0.1020 c          1 2UZ       0.735000
      3 OXT          3.9750     0.0470    -0.7210 o          1 2UZ      -0.737500
      4 CA           1.7610    -0.8650    -0.4140 c3         1 2UZ       0.021500
      5 N            1.6320    -2.3840    -0.2510 n8         1 2UZ      -0.997200
      6 CB           0.5800    -0.0140     0.1860 c6         1 2UZ       0.369500
      7 NAH         -0.7380    -0.5540    -0.1800 nu         1 2UZ      -0.796200
      8 SAI          0.6480     1.7220    -0.4220 ss         1 2UZ      -0.528000
      9 CAG         -0.8160     2.3210     0.5040 c6         1 2UZ       0.134800
     10 CAF         -2.0280     1.4240     0.3860 c2         1 2UZ      -0.381200
     11 CAL         -1.9800     0.1080     0.0550 ce         1 2UZ       0.047800
     12 CAJ         -3.2530    -0.7770    -0.0420 c          1 2UZ       0.717200
     13 OAD         -3.1210    -1.9650    -0.3210 o          1 2UZ      -0.734000
     14 OAB         -4.3530    -0.2740     0.1630 o          1 2UZ      -0.734000
     15 H2           1.7460    -0.6770    -1.4960 h1         1 2UZ       0.054700
     16 H3           1.5440    -2.6150     0.7470 hn         1 2UZ       0.385000
     17 H4           0.7640    -2.7240    -0.6770 hn         1 2UZ       0.385000
     18 H6           0.6850     0.0220     1.2820 h2         1 2UZ       0.067700
     19 H7          -0.5280     2.4080     1.5610 h1         1 2UZ       0.030200
     20 H8          -1.0570     3.3300     0.1390 h1         1 2UZ       0.030200
     21 H9          -2.9860     1.9070     0.5810 ha         1 2UZ       0.180000
     22 H10         -0.8120    -1.5540    -0.3600 hn         1 2UZ       0.487000
@<TRIPOS>BOND
     1     1     2 1   
     2     2     3 1   
     3     2     4 1   
     4     4     5 1   
     5     4     6 1   
     6     4    15 1   
     7     5    16 1   
     8     5    17 1   
     9     6     7 1   
    10     6     8 1   
    11     6    18 1   
    12     7    11 1   
    13     7    22 1   
    14     8     9 1   
    15     9    10 1   
    16     9    19 1   
    17     9    20 1   
    18    10    11 2   
    19    10    21 1   
    20    11    12 1   
    21    12    13 1   
    22    12    14 1   
@<TRIPOS>SUBSTRUCTURE
     1 2UZ         1 TEMP              0 ****  ****    0 ROOT
