@<TRIPOS>MOLECULE
2UZ
   22    22     1     0     0
SMALL
abcg2


@<TRIPOS>ATOM
      1 O            3.4220    -0.3290     1.0300 o          1 2UZ      -0.737500
      2 C            2.9950    -0.2670    -0.1410 c          1 2UZ       0.735000
      3 OXT          3.5370     0.2960    -1.1090 o          1 2UZ      -0.737500
      4 CA           1.6350    -0.9560    -0.3930 c3         1 2UZ       0.021500
      5 N            1.6620    -2.2950     0.1750 n8         1 2UZ      -0.997200
      6 CB           0.5080    -0.0930     0.1870 c6         1 2UZ       0.369500
      7 NAH         -0.7680    -0.6530    -0.1230 nu         1 2UZ      -0.796200
      8 SAI          0.6380     1.6600    -0.3760 ss         1 2UZ      -0.528000
      9 CAG         -0.7560     2.2120     0.6580 c6         1 2UZ       0.134800
     10 CAF         -1.9570     1.3390     0.4910 c2         1 2UZ      -0.381200
     11 CAL         -1.9290     0.0680     0.0590 ce         1 2UZ       0.047800
     12 CAJ         -3.2060    -0.6820    -0.3180 c          1 2UZ       0.717200
     13 OAD         -3.0360    -1.7370    -0.9620 o          1 2UZ      -0.734000
     14 OAB         -4.2900    -0.1770     0.0210 o          1 2UZ      -0.734000
     15 H2           1.4710    -1.0370    -1.4730 h1         1 2UZ       0.054700
     16 H3           1.9610    -2.2180     1.1400 hn         1 2UZ       0.385000
     17 H4           0.7310    -2.6920     0.1960 hn         1 2UZ       0.385000
     18 H6           0.6290    -0.0470     1.2740 h2         1 2UZ       0.067700
     19 H7          -0.4180     2.2800     1.6960 h1         1 2UZ       0.030200
     20 H8          -0.9900     3.2310     0.3430 h1         1 2UZ       0.030200
     21 H9          -2.9240     1.7910     0.6680 ha         1 2UZ       0.180000
     22 H10         -0.8140    -1.2850    -0.9100 hn         1 2UZ       0.487000
@<TRIPOS>BOND
     1     1     2 1   
     2     2     3 1   
     3     2     4 1   
     4     4     5 1   
     5     4     6 1   
     6     4    15 1   
     7     5    16 1   
     8     5    17 1   
     9     6     7 1   
    10     6     8 1   
    11     6    18 1   
    12     7    11 1   
    13     7    22 1   
    14     8     9 1   
    15     9    10 1   
    16     9    19 1   
    17     9    20 1   
    18    10    11 2   
    19    10    21 1   
    20    11    12 1   
    21    12    13 1   
    22    12    14 1   
@<TRIPOS>SUBSTRUCTURE
     1 2UZ         1 TEMP              0 ****  ****    0 ROOT
