@<TRIPOS>MOLECULE
2V0
   25    25     1     0     0
SMALL
No Charge or Current Charge


@<TRIPOS>ATOM
      1 O            3.5190    -0.0720     1.3260 o          1 2V0      -0.737500
      2 C            3.3240    -0.1460     0.1200 c          1 2V0       0.697000
      3 OXT          4.1770     0.1420    -0.7100 o          1 2V0      -0.737500
      4 CA           1.9940    -0.8160    -0.3800 c3         1 2V0       0.015500
      5 N            1.8950    -2.3280    -0.1540 n8         1 2V0      -0.993200
      6 CB           0.7730     0.0000     0.1630 c6         1 2V0       0.395500
      7 NAH         -0.4620    -0.6940    -0.1730 nu         1 2V0      -0.784200
      8 SAI          0.6830     1.6720    -0.5790 ss         1 2V0      -0.462000
      9 CAG         -0.8660     2.1620     0.2720 c6         1 2V0       0.125800
     10 CAJ         -2.0090     1.1510     0.2250 c2         1 2V0      -0.287400
     11 CAA         -3.3670     1.8000     0.4560 c3         1 2V0       0.010100
     12 CAM         -1.7860    -0.1830    -0.0070 ce         1 2V0       0.069800
     13 CAK         -2.8910    -1.2840    -0.0760 c          1 2V0       0.711200
     14 OAE         -4.0770    -0.9980     0.0400 o          1 2V0      -0.731500
     15 OAC         -2.5340    -2.4460    -0.2580 o          1 2V0      -0.731500
     16 H2           1.9800    -0.6760    -1.4700 h1         1 2V0       0.058700
     17 H3           2.6960    -2.7860    -0.6070 hn         1 2V0       0.377500
     18 H4           2.0490    -2.5200     0.8440 hn         1 2V0       0.377500
     19 H6           0.8620     0.1230     1.2540 h2         1 2V0       0.044700
     20 H7          -0.3750    -1.7050    -0.3040 hn         1 2V0       0.506000
     21 H9          -0.6090     2.3630     1.3210 h1         1 2V0       0.026200
     22 H10         -1.1820     3.1160    -0.1750 h1         1 2V0       0.026200
     23 H12         -3.2820     2.8670     0.6950 hc         1 2V0       0.007367
     24 H13         -4.0010     1.7180    -0.4340 hc         1 2V0       0.007367
     25 H14         -3.8910     1.3330     1.2980 hc         1 2V0       0.007367
@<TRIPOS>BOND
     1     1     2 1   
     2     2     3 1   
     3     2     4 1   
     4     4     5 1   
     5     4     6 1   
     6     4    16 1   
     7     5    17 1   
     8     5    18 1   
     9     6     7 1   
    10     6     8 1   
    11     6    19 1   
    12     7    12 1   
    13     7    20 1   
    14     8     9 1   
    15     9    10 1   
    16     9    21 1   
    17     9    22 1   
    18    10    11 1   
    19    10    12 2   
    20    11    23 1   
    21    11    24 1   
    22    11    25 1   
    23    12    13 1   
    24    13    14 1   
    25    13    15 1   
@<TRIPOS>SUBSTRUCTURE
     1 2V0         1 TEMP              0 ****  ****    0 ROOT
