@<TRIPOS>MOLECULE
2V0
   25    25     1     0     0
SMALL
abcg2


@<TRIPOS>ATOM
      1 O            3.6180    -0.2220     1.1570 o          1 2V0      -0.737500
      2 C            3.2230    -0.0880    -0.0180 c          1 2V0       0.697000
      3 OXT          3.7400     0.6150    -0.9080 o          1 2V0      -0.737500
      4 CA           1.9360    -0.8570    -0.3960 c3         1 2V0       0.015500
      5 N            1.8470    -2.2020     0.1610 n8         1 2V0      -0.993200
      6 CB           0.7090    -0.0810     0.0890 c6         1 2V0       0.395500
      7 NAH         -0.4820    -0.7340    -0.3510 nu         1 2V0      -0.784200
      8 SAI          0.7170     1.6200    -0.5610 ss         1 2V0      -0.462000
      9 CAG         -0.8160     2.1120     0.2680 c6         1 2V0       0.125800
     10 CAJ         -1.9350     1.1050     0.2070 c2         1 2V0      -0.287400
     11 CAA         -3.2570     1.7310     0.5520 c3         1 2V0       0.010100
     12 CAM         -1.7310    -0.1950    -0.0860 ce         1 2V0       0.069800
     13 CAK         -2.8340    -1.2510    -0.2090 c          1 2V0       0.711200
     14 OAE         -3.9790    -0.8830    -0.5250 o          1 2V0      -0.731500
     15 OAC         -2.4670    -2.4270     0.0030 o          1 2V0      -0.731500
     16 H2           1.8650    -0.9340    -1.4840 h1         1 2V0       0.058700
     17 H3           2.4940    -2.8070    -0.3310 hn         1 2V0       0.377500
     18 H4           2.1890    -2.1600     1.1150 hn         1 2V0       0.377500
     19 H6           0.7540     0.0080     1.1850 h2         1 2V0       0.044700
     20 H7          -0.4530    -1.7350    -0.2040 hn         1 2V0       0.506000
     21 H9          -0.5940     2.3830     1.3060 h1         1 2V0       0.026200
     22 H10         -1.1310     3.0380    -0.2230 h1         1 2V0       0.026200
     23 H12         -3.1350     2.3980     1.4110 hc         1 2V0       0.007367
     24 H13         -3.6340     2.3550    -0.2650 hc         1 2V0       0.007367
     25 H14         -4.0250     1.0050     0.7920 hc         1 2V0       0.007367
@<TRIPOS>BOND
     1     1     2 1   
     2     2     3 1   
     3     2     4 1   
     4     4     5 1   
     5     4     6 1   
     6     4    16 1   
     7     5    17 1   
     8     5    18 1   
     9     6     7 1   
    10     6     8 1   
    11     6    19 1   
    12     7    12 1   
    13     7    20 1   
    14     8     9 1   
    15     9    10 1   
    16     9    21 1   
    17     9    22 1   
    18    10    11 1   
    19    10    12 2   
    20    11    23 1   
    21    11    24 1   
    22    11    25 1   
    23    12    13 1   
    24    13    14 1   
    25    13    15 1   
@<TRIPOS>SUBSTRUCTURE
     1 2V0         1 TEMP              0 ****  ****    0 ROOT
