@<TRIPOS>MOLECULE
2V1
   71    76     1     0     0
SMALL
No Charge or Current Charge


@<TRIPOS>ATOM
      1 C1           4.7260     0.2120    -0.0360 cc         1 2V1       0.680900
      2 N2           3.7610     1.0940    -0.0730 nd         1 2V1      -0.770000
      3 C3           4.1700     2.4450    -0.0680 cd         1 2V1       0.426500
      4 C4           5.5250     2.8240    -0.0240 cc         1 2V1      -0.199000
      5 C5           6.1050     0.5030     0.0190 cc         1 2V1      -0.176000
      6 N6           6.4470     1.7920     0.0080 na         1 2V1       0.164100
      7 C7           7.7940     1.9730     0.0790 cc         1 2V1      -0.260100
      8 C8           8.2570     0.6690     0.1210 cd         1 2V1      -0.045400
      9 N9           7.2010    -0.2420     0.0840 nd         1 2V1      -0.276600
     10 N10          4.3870    -1.1030    -0.0160 nu         1 2V1      -0.931900
     11 C11          3.1660    -1.7740     0.0590 ca         1 2V1       0.315000
     12 C12          2.0630    -1.3880    -0.7230 ca         1 2V1      -0.135500
     13 C13          0.8440    -2.0820    -0.6320 ca         1 2V1      -0.062000
     14 C14          0.7130    -3.1950     0.2260 ca         1 2V1      -0.162600
     15 C15          1.8230    -3.5760     1.0140 ca         1 2V1      -0.062000
     16 C16          3.0400    -2.8760     0.9190 ca         1 2V1      -0.135500
     17 C17          3.0730     3.4620    -0.1100 ca         1 2V1      -0.113500
     18 C18         -0.6220    -3.9050     0.3250 c          1 2V1       0.622700
     19 O19         -1.6660    -3.2830     0.1690 o          1 2V1      -0.619100
     20 N20         -0.6420    -5.2710     0.6980 n          1 2V1      -0.395800
     21 C21         -1.9130    -5.9420     1.1060 c6         1 2V1       0.054500
     22 C22         -2.4420    -6.8990     0.0080 c6         1 2V1       0.126600
     23 O23         -1.4100    -7.8420    -0.3550 os         1 2V1      -0.443000
     24 C24         -0.2190    -7.2080    -0.8700 c6         1 2V1       0.126600
     25 C25          0.3790    -6.2410     0.1890 c6         1 2V1       0.054500
     26 C26          1.7100     3.0630    -0.1470 ca         1 2V1      -0.128000
     27 C27          0.6580     3.9960    -0.1860 ca         1 2V1      -0.026000
     28 C28          0.9630     5.3720    -0.1910 ca         1 2V1      -0.115000
     29 C29          2.3010     5.7910    -0.1560 ca         1 2V1      -0.092000
     30 C30          3.3440     4.8520    -0.1150 ca         1 2V1      -0.121000
     31 N31         -0.6680     3.4780    -0.2200 ns         1 2V1      -0.139000
     32 C32         -1.9190     4.0840    -0.2410 c          1 2V1       0.617700
     33 C33         -3.1090     3.1370    -0.2800 ca         1 2V1      -0.106600
     34 O34         -2.0770     5.3010    -0.2290 o          1 2V1      -0.574100
     35 C35         -2.9570     1.7260    -0.2970 ca         1 2V1      -0.092500
     36 C36         -4.0800     0.8810    -0.3330 ca         1 2V1      -0.024000
     37 C37         -5.3790     1.4260    -0.3550 ca         1 2V1      -0.251500
     38 C38         -5.5440     2.8250    -0.3350 ca         1 2V1      -0.024000
     39 C39         -4.4200     3.6680    -0.2990 ca         1 2V1      -0.092500
     40 S40         -6.8210     0.3390    -0.3900 sy         1 2V1       1.057500
     41 C41         -7.1530     0.0480     1.3470 c3         1 2V1      -0.336100
     42 O42         -7.9700     1.0880    -0.9160 o          1 2V1      -0.526000
     43 O43         -6.4280    -0.9550    -0.9630 o          1 2V1      -0.526000
     44 H1           5.9150     3.8280    -0.0140 h4         1 2V1       0.157000
     45 H2           8.2900     2.9370     0.0920 h4         1 2V1       0.236000
     46 H3           9.2910     0.3330     0.1790 h4         1 2V1       0.231000
     47 H4           5.2020    -1.6550     0.2340 hn         1 2V1       0.524000
     48 H5           2.1480    -0.5500    -1.4060 ha         1 2V1       0.128500
     49 H6           0.0020    -1.7600    -1.2420 ha         1 2V1       0.121500
     50 H7           1.7450    -4.4010     1.7180 ha         1 2V1       0.121500
     51 H8           3.8820    -3.1840     1.5340 ha         1 2V1       0.128500
     52 H9          -1.7290    -6.5200     2.0230 h1         1 2V1       0.066200
     53 H10         -2.6880    -5.2010     1.3500 h1         1 2V1       0.066200
     54 H11         -3.3200    -7.4470     0.3770 h1         1 2V1       0.061200
     55 H12         -2.7430    -6.3250    -0.8810 h1         1 2V1       0.061200
     56 H13          0.5180    -7.9800    -1.1310 h1         1 2V1       0.061200
     57 H14         -0.4700    -6.6520    -1.7850 h1         1 2V1       0.061200
     58 H15          1.2260    -5.7190    -0.2740 h1         1 2V1       0.066200
     59 H16          0.7720    -6.8250     1.0330 h1         1 2V1       0.066200
     60 H17          1.4510     2.0070    -0.1430 ha         1 2V1       0.137000
     61 H18          0.1870     6.1300    -0.2230 ha         1 2V1       0.149000
     62 H19          2.5330     6.8550    -0.1600 ha         1 2V1       0.117000
     63 H20          4.3600     5.2320    -0.0900 ha         1 2V1       0.111000
     64 H21         -0.7020     2.4680    -0.2300 hn         1 2V1       0.157000
     65 H22         -1.9750     1.2600    -0.2820 ha         1 2V1       0.138000
     66 H23         -3.9330    -0.1990    -0.3430 ha         1 2V1       0.148500
     67 H24         -6.5400     3.2660    -0.3460 ha         1 2V1       0.148500
     68 H25         -4.5760     4.7450    -0.2860 ha         1 2V1       0.138000
     69 H26         -7.3530     1.0140     1.8220 h1         1 2V1       0.104367
     70 H27         -8.0240    -0.6100     1.4220 h1         1 2V1       0.104367
     71 H28         -6.2690    -0.4250     1.7880 h1         1 2V1       0.104367
@<TRIPOS>BOND
     1     1     2 2   
     2     1     5 1   
     3     1    10 1   
     4     2     3 1   
     5     3     4 2   
     6     3    17 1   
     7     4     6 1   
     8     4    44 1   
     9     5     6 1   
    10     5     9 2   
    11     6     7 1   
    12     7     8 2   
    13     7    45 1   
    14     8     9 1   
    15     8    46 1   
    16    10    11 1   
    17    10    47 1   
    18    11    12 ar  
    19    11    16 ar  
    20    12    13 ar  
    21    12    48 1   
    22    13    14 ar  
    23    13    49 1   
    24    14    15 ar  
    25    14    18 1   
    26    15    16 ar  
    27    15    50 1   
    28    16    51 1   
    29    17    26 ar  
    30    17    30 ar  
    31    18    19 2   
    32    18    20 1   
    33    20    21 1   
    34    20    25 1   
    35    21    22 1   
    36    21    52 1   
    37    21    53 1   
    38    22    23 1   
    39    22    54 1   
    40    22    55 1   
    41    23    24 1   
    42    24    25 1   
    43    24    56 1   
    44    24    57 1   
    45    25    58 1   
    46    25    59 1   
    47    26    27 ar  
    48    26    60 1   
    49    27    28 ar  
    50    27    31 1   
    51    28    29 ar  
    52    28    61 1   
    53    29    30 ar  
    54    29    62 1   
    55    30    63 1   
    56    31    32 1   
    57    31    64 1   
    58    32    33 1   
    59    32    34 2   
    60    33    35 ar  
    61    33    39 ar  
    62    35    36 ar  
    63    35    65 1   
    64    36    37 ar  
    65    36    66 1   
    66    37    38 ar  
    67    37    40 1   
    68    38    39 ar  
    69    38    67 1   
    70    39    68 1   
    71    40    41 1   
    72    40    42 2   
    73    40    43 2   
    74    41    69 1   
    75    41    70 1   
    76    41    71 1   
@<TRIPOS>SUBSTRUCTURE
     1 2V1         1 TEMP              0 ****  ****    0 ROOT
