@<TRIPOS>MOLECULE
2V1
   71    76     1     0     0
SMALL
abcg2


@<TRIPOS>ATOM
      1 C1           4.8980     0.1730    -0.1170 cc         1 2V1       0.680900
      2 N2           3.9700     1.0750    -0.0480 nd         1 2V1      -0.770000
      3 C3           4.2760     2.4000    -0.0990 cd         1 2V1       0.426500
      4 C4           5.5550     2.8410    -0.2170 cc         1 2V1      -0.199000
      5 C5           6.2700     0.5470    -0.2300 cc         1 2V1      -0.176000
      6 N6           6.5440     1.8890    -0.2740 na         1 2V1       0.164100
      7 C7           7.8980     2.0070    -0.3790 cc         1 2V1      -0.260100
      8 C8           8.3730     0.7180    -0.3900 cd         1 2V1      -0.045400
      9 N9           7.3640    -0.1800    -0.2980 nd         1 2V1      -0.276600
     10 N10          4.5970    -1.1540    -0.0740 nu         1 2V1      -0.931900
     11 C11          3.3090    -1.6640     0.1200 ca         1 2V1       0.315000
     12 C12          2.2080    -1.1480    -0.5650 ca         1 2V1      -0.135500
     13 C13          0.9380    -1.6230    -0.2920 ca         1 2V1      -0.062000
     14 C14          0.7430    -2.6590     0.6160 ca         1 2V1      -0.162600
     15 C15          1.8500    -3.2210     1.2430 ca         1 2V1      -0.062000
     16 C16          3.1200    -2.7180     1.0100 ca         1 2V1      -0.135500
     17 C17          3.1110     3.3070    -0.0280 ca         1 2V1      -0.113500
     18 C18         -0.6530    -3.0360     0.9910 c          1 2V1       0.622700
     19 O19         -1.4020    -2.1690     1.4280 o          1 2V1      -0.619100
     20 N20         -1.0160    -4.3290     0.8700 n          1 2V1      -0.395800
     21 C21         -2.3520    -4.7580     1.2540 c6         1 2V1       0.054500
     22 C22         -3.1740    -5.0510     0.0110 c6         1 2V1       0.126600
     23 O23         -2.5330    -6.0040    -0.8110 os         1 2V1      -0.443000
     24 C24         -1.2460    -5.5810    -1.1960 c6         1 2V1       0.126600
     25 C25         -0.3570    -5.2960     0.0060 c6         1 2V1       0.054500
     26 C26          1.8420     2.7480    -0.0950 ca         1 2V1      -0.128000
     27 C27          0.6890     3.5270    -0.0380 ca         1 2V1      -0.026000
     28 C28          0.8040     4.9090     0.0960 ca         1 2V1      -0.115000
     29 C29          2.0750     5.4670     0.1690 ca         1 2V1      -0.092000
     30 C30          3.2210     4.6920     0.1110 ca         1 2V1      -0.121000
     31 N31         -0.5160     2.8200    -0.1290 ns         1 2V1      -0.139000
     32 C32         -1.7910     3.2600    -0.0310 c          1 2V1       0.617700
     33 C33         -2.8290     2.1830    -0.1450 ca         1 2V1      -0.106600
     34 O34         -2.1080     4.4260     0.1140 o          1 2V1      -0.574100
     35 C35         -2.5980     0.8660     0.2490 ca         1 2V1      -0.092500
     36 C36         -3.5900    -0.0910     0.1140 ca         1 2V1      -0.024000
     37 C37         -4.8180     0.2810    -0.4100 ca         1 2V1      -0.251500
     38 C38         -5.0740     1.5890    -0.7930 ca         1 2V1      -0.024000
     39 C39         -4.0770     2.5380    -0.6490 ca         1 2V1      -0.092500
     40 S40         -6.0820    -0.9570    -0.5870 sy         1 2V1       1.057500
     41 C41         -6.8650    -0.9820     1.0080 c3         1 2V1      -0.336100
     42 O42         -7.0500    -0.4860    -1.5740 o          1 2V1      -0.526000
     43 O43         -5.4240    -2.2440    -0.8010 o          1 2V1      -0.526000
     44 H1           5.8650     3.8720    -0.2840 h4         1 2V1       0.157000
     45 H2           8.3910     2.9620    -0.4350 h4         1 2V1       0.236000
     46 H3           9.4040     0.4090    -0.4610 h4         1 2V1       0.231000
     47 H4           5.3710    -1.7790     0.0950 hn         1 2V1       0.524000
     48 H5           2.3370    -0.3720    -1.3040 ha         1 2V1       0.128500
     49 H6           0.0910    -1.1920    -0.8110 ha         1 2V1       0.121500
     50 H7           1.7270    -4.0320     1.9500 ha         1 2V1       0.121500
     51 H8           3.9670    -3.1340     1.5430 ha         1 2V1       0.128500
     52 H9          -2.2600    -5.6600     1.8650 h1         1 2V1       0.066200
     53 H10         -2.8340    -3.9920     1.8560 h1         1 2V1       0.066200
     54 H11         -4.1430    -5.4650     0.2930 h1         1 2V1       0.061200
     55 H12         -3.3550    -4.1170    -0.5380 h1         1 2V1       0.061200
     56 H13         -0.8060    -6.3780    -1.7990 h1         1 2V1       0.061200
     57 H14         -1.3020    -4.6770    -1.8190 h1         1 2V1       0.061200
     58 H15          0.6030    -4.9210    -0.3390 h1         1 2V1       0.066200
     59 H16         -0.1710    -6.2140     0.5710 h1         1 2V1       0.066200
     60 H17          1.7550     1.6730    -0.1840 ha         1 2V1       0.137000
     61 H18         -0.0630     5.5470     0.1420 ha         1 2V1       0.149000
     62 H19          2.1670     6.5400     0.2770 ha         1 2V1       0.117000
     63 H20          4.1870     5.1740     0.1880 ha         1 2V1       0.111000
     64 H21         -0.3940     1.8370    -0.3150 hn         1 2V1       0.157000
     65 H22         -1.6590     0.5550     0.6900 ha         1 2V1       0.138000
     66 H23         -3.3880    -1.1090     0.4210 ha         1 2V1       0.148500
     67 H24         -6.0340     1.8750    -1.2020 ha         1 2V1       0.148500
     68 H25         -4.2710     3.5600    -0.9470 ha         1 2V1       0.138000
     69 H26         -7.2860    -0.0020     1.2180 h1         1 2V1       0.104367
     70 H27         -7.6560    -1.7300     0.9710 h1         1 2V1       0.104367
     71 H28         -6.1320    -1.2500     1.7660 h1         1 2V1       0.104367
@<TRIPOS>BOND
     1     1     2 2   
     2     1     5 1   
     3     1    10 1   
     4     2     3 1   
     5     3     4 2   
     6     3    17 1   
     7     4     6 1   
     8     4    44 1   
     9     5     6 1   
    10     5     9 2   
    11     6     7 1   
    12     7     8 2   
    13     7    45 1   
    14     8     9 1   
    15     8    46 1   
    16    10    11 1   
    17    10    47 1   
    18    11    12 ar  
    19    11    16 ar  
    20    12    13 ar  
    21    12    48 1   
    22    13    14 ar  
    23    13    49 1   
    24    14    15 ar  
    25    14    18 1   
    26    15    16 ar  
    27    15    50 1   
    28    16    51 1   
    29    17    26 ar  
    30    17    30 ar  
    31    18    19 2   
    32    18    20 1   
    33    20    21 1   
    34    20    25 1   
    35    21    22 1   
    36    21    52 1   
    37    21    53 1   
    38    22    23 1   
    39    22    54 1   
    40    22    55 1   
    41    23    24 1   
    42    24    25 1   
    43    24    56 1   
    44    24    57 1   
    45    25    58 1   
    46    25    59 1   
    47    26    27 ar  
    48    26    60 1   
    49    27    28 ar  
    50    27    31 1   
    51    28    29 ar  
    52    28    61 1   
    53    29    30 ar  
    54    29    62 1   
    55    30    63 1   
    56    31    32 1   
    57    31    64 1   
    58    32    33 1   
    59    32    34 2   
    60    33    35 ar  
    61    33    39 ar  
    62    35    36 ar  
    63    35    65 1   
    64    36    37 ar  
    65    36    66 1   
    66    37    38 ar  
    67    37    40 1   
    68    38    39 ar  
    69    38    67 1   
    70    39    68 1   
    71    40    41 1   
    72    40    42 2   
    73    40    43 2   
    74    41    69 1   
    75    41    70 1   
    76    41    71 1   
@<TRIPOS>SUBSTRUCTURE
     1 2V1         1 TEMP              0 ****  ****    0 ROOT
