@<TRIPOS>MOLECULE
2V2
   64    67     1     0     0
SMALL
No Charge or Current Charge


@<TRIPOS>ATOM
      1 C1          21.5070     5.0760     1.1860 c          1 2V2       0.525200
      2 C2          22.7510     5.5200     0.4920 cc         1 2V2      -0.031600
      3 C3          23.8230     6.0670     1.1810 cd         1 2V2      -0.147000
      4 C4          23.7730     6.2030     2.6200 cd         1 2V2      -0.097200
      5 C5          22.6050     5.8060     3.2520 cc         1 2V2      -0.059400
      6 N6          21.5090     5.2590     2.5820 n          1 2V2      -0.254000
      7 O7          20.5480     4.5900     0.5910 o          1 2V2      -0.595000
      8 C8          20.3010     4.8440     3.3340 c3         1 2V2       0.080300
      9 C9          24.9000     6.8310     3.3600 ca         1 2V2      -0.026800
     10 C10         26.2070     6.5300     2.9230 ca         1 2V2      -0.085000
     11 C11         27.3280     7.0570     3.5720 ca         1 2V2      -0.106000
     12 C12         27.1650     7.8800     4.6890 ca         1 2V2      -0.101000
     13 C13         25.8790     8.1830     5.1790 ca         1 2V2       0.019600
     14 C14         24.7310     7.7110     4.4750 ca         1 2V2      -0.039300
     15 C15         23.3480     8.2890     4.8160 c3         1 2V2      -0.053800
     16 N16         25.7670     9.0900     6.3000 n          1 2V2      -0.267500
     17 C17         26.5460    10.2450     6.3050 cc         1 2V2       0.508800
     18 N18         26.5990    11.1790     7.2600 nd         1 2V2      -0.623100
     19 C19         25.0760     8.7300     7.4600 c          1 2V2       0.579600
     20 O20         24.5410     7.6360     7.5990 o          1 2V2      -0.529000
     21 C21         25.0500     9.7510     8.5370 ca         1 2V2      -0.204600
     22 C22         25.8070    10.9170     8.3830 ca         1 2V2       0.180400
     23 C23         25.7970    11.8800     9.4070 ca         1 2V2      -0.107000
     24 C24         25.0420    11.7120    10.5910 ca         1 2V2      -0.025300
     25 C25         24.2870    10.5230    10.7230 ca         1 2V2      -0.132000
     26 C26         24.2930     9.5530     9.7090 ca         1 2V2      -0.041000
     27 C27         25.0720    12.8160    11.6830 c3         1 2V2      -0.009700
     28 C28         24.5550    14.1500    11.0780 c3         1 2V2      -0.083767
     29 C29         24.1870    12.4770    12.9160 c3         1 2V2      -0.083767
     30 C30         26.5310    13.0060    12.1800 c3         1 2V2      -0.083767
     31 N31         22.7180     5.3430    -0.9040 ns         1 2V2      -0.423100
     32 C32         23.6600     5.5950    -1.8770 c          1 2V2       0.660100
     33 O33         24.7750     6.0470    -1.6800 o          1 2V2      -0.639100
     34 N34         23.2100     5.2760    -3.1300 ns         1 2V2      -0.527900
     35 C35         24.0030     5.4400    -4.3510 c3         1 2V2       0.113300
     36 H1          24.7010     6.4160     0.6540 ha         1 2V2       0.229000
     37 H2          22.4500     5.8380     4.3240 h4         1 2V2       0.212000
     38 H3          20.4080     5.0670     4.4030 h1         1 2V2       0.057700
     39 H4          19.4240     5.3800     2.9500 h1         1 2V2       0.057700
     40 H5          20.1440     3.7650     3.2130 h1         1 2V2       0.057700
     41 H6          26.3660     5.8560     2.0850 ha         1 2V2       0.126000
     42 H7          28.3270     6.8110     3.2180 ha         1 2V2       0.123000
     43 H8          28.0520     8.2590     5.1930 ha         1 2V2       0.124000
     44 H9          22.8240     7.6810     5.5620 hc         1 2V2       0.051700
     45 H10         23.4150     9.3080     5.2130 hc         1 2V2       0.051700
     46 H11         22.7100     8.3680     3.9290 hc         1 2V2       0.051700
     47 H12         27.1180    10.3960     5.3970 h5         1 2V2       0.054800
     48 H13         26.3940    12.7770     9.2690 ha         1 2V2       0.132000
     49 H14         23.6860    10.3250    11.6050 ha         1 2V2       0.120000
     50 H15         23.7040     8.6470     9.8390 ha         1 2V2       0.134000
     51 H16         24.5320    14.9420    11.8370 hc         1 2V2       0.038033
     52 H17         25.1940    14.4980    10.2590 hc         1 2V2       0.038033
     53 H18         23.5390    14.0270    10.6850 hc         1 2V2       0.038033
     54 H19         24.2330    13.2790    13.6630 hc         1 2V2       0.038033
     55 H20         23.1360    12.3560    12.6280 hc         1 2V2       0.038033
     56 H21         24.5250    11.5550    13.4040 hc         1 2V2       0.038033
     57 H22         26.5790    13.7570    12.9780 hc         1 2V2       0.038033
     58 H23         26.9290    12.0650    12.5770 hc         1 2V2       0.038033
     59 H24         27.1940    13.3400    11.3740 hc         1 2V2       0.038033
     60 H25         21.8580     4.9540    -1.2710 hn         1 2V2       0.339500
     61 H26         22.2710     4.9060    -3.2150 hn         1 2V2       0.316500
     62 H27         23.4150     5.1130    -5.2180 h1         1 2V2       0.041367
     63 H28         24.2750     6.4960    -4.4760 h1         1 2V2       0.041367
     64 H29         24.9150     4.8340    -4.2830 h1         1 2V2       0.041367
@<TRIPOS>BOND
     1     1     2 1   
     2     1     6 1   
     3     1     7 2   
     4     2     3 2   
     5     2    31 1   
     6     3     4 1   
     7     3    36 1   
     8     4     5 2   
     9     4     9 1   
    10     5     6 1   
    11     5    37 1   
    12     6     8 1   
    13     8    38 1   
    14     8    39 1   
    15     8    40 1   
    16     9    10 ar  
    17     9    14 ar  
    18    10    11 ar  
    19    10    41 1   
    20    11    12 ar  
    21    11    42 1   
    22    12    13 ar  
    23    12    43 1   
    24    13    14 ar  
    25    13    16 1   
    26    14    15 1   
    27    15    44 1   
    28    15    45 1   
    29    15    46 1   
    30    16    17 1   
    31    16    19 1   
    32    17    18 2   
    33    17    47 1   
    34    18    22 1   
    35    19    20 2   
    36    19    21 1   
    37    21    22 ar  
    38    21    26 ar  
    39    22    23 ar  
    40    23    24 ar  
    41    23    48 1   
    42    24    25 ar  
    43    24    27 1   
    44    25    26 ar  
    45    25    49 1   
    46    26    50 1   
    47    27    28 1   
    48    27    29 1   
    49    27    30 1   
    50    28    51 1   
    51    28    52 1   
    52    28    53 1   
    53    29    54 1   
    54    29    55 1   
    55    29    56 1   
    56    30    57 1   
    57    30    58 1   
    58    30    59 1   
    59    31    32 1   
    60    31    60 1   
    61    32    33 2   
    62    32    34 1   
    63    34    35 1   
    64    34    61 1   
    65    35    62 1   
    66    35    63 1   
    67    35    64 1   
@<TRIPOS>SUBSTRUCTURE
     1 2V2         1 TEMP              0 ****  ****    0 ROOT
