@<TRIPOS>MOLECULE
2V2
   64    67     1     0     0
SMALL
abcg2


@<TRIPOS>ATOM
      1 C1          21.5590     5.1320     1.2340 c          1 2V2       0.525200
      2 C2          22.7530     5.6500     0.5880 cc         1 2V2      -0.031600
      3 C3          23.8010     6.1190     1.3320 cd         1 2V2      -0.147000
      4 C4          23.7370     6.1150     2.7510 cd         1 2V2      -0.097200
      5 C5          22.6180     5.6160     3.3470 cc         1 2V2      -0.059400
      6 N6          21.5690     5.1410     2.6120 n          1 2V2      -0.254000
      7 O7          20.5800     4.7020     0.5980 o          1 2V2      -0.595000
      8 C8          20.3860     4.6090     3.2900 c3         1 2V2       0.080300
      9 C9          24.8880     6.5930     3.5540 ca         1 2V2      -0.026800
     10 C10         26.1550     6.0760     3.2630 ca         1 2V2      -0.085000
     11 C11         27.2760     6.4590     3.9820 ca         1 2V2      -0.106000
     12 C12         27.1390     7.3700     5.0200 ca         1 2V2      -0.101000
     13 C13         25.8880     7.9000     5.3000 ca         1 2V2       0.019600
     14 C14         24.7410     7.5490     4.5780 ca         1 2V2      -0.039300
     15 C15         23.4270     8.2160     4.8770 c3         1 2V2      -0.053800
     16 N16         25.7940     8.8740     6.3570 n          1 2V2      -0.267500
     17 C17         26.3470    10.1180     6.1590 cc         1 2V2       0.508800
     18 N18         26.3430    11.0820     7.0080 nd         1 2V2      -0.623100
     19 C19         25.1790     8.5240     7.5660 c          1 2V2       0.579600
     20 O20         24.7320     7.3970     7.7400 o          1 2V2      -0.529000
     21 C21         25.1380     9.6090     8.5370 ca         1 2V2      -0.204600
     22 C22         25.7220    10.8530     8.2270 ca         1 2V2       0.180400
     23 C23         25.6750    11.8870     9.1660 ca         1 2V2      -0.107000
     24 C24         25.0600    11.7250    10.4010 ca         1 2V2      -0.025300
     25 C25         24.4850    10.4740    10.6930 ca         1 2V2      -0.132000
     26 C26         24.5240     9.4370     9.7810 ca         1 2V2      -0.041000
     27 C27         25.0300    12.8940    11.3890 c3         1 2V2      -0.009700
     28 C28         24.3060    14.0870    10.7340 c3         1 2V2      -0.083767
     29 C29         24.3010    12.5400    12.6910 c3         1 2V2      -0.083767
     30 C30         26.4760    13.3000    11.7340 c3         1 2V2      -0.083767
     31 N31         22.6590     5.6060    -0.7950 ns         1 2V2      -0.423100
     32 C32         23.5990     5.9980    -1.7250 c          1 2V2       0.660100
     33 O33         24.7040     6.4520    -1.4190 o          1 2V2      -0.639100
     34 N34         23.2070     5.8390    -3.0120 ns         1 2V2      -0.527900
     35 C35         24.0630     6.2280    -4.1170 c3         1 2V2       0.113300
     36 H1          24.6750     6.5070     0.8350 ha         1 2V2       0.229000
     37 H2          22.5000     5.5560     4.4170 h4         1 2V2       0.212000
     38 H3          20.5450     4.6690     4.3620 h1         1 2V2       0.057700
     39 H4          19.5080     5.1890     3.0110 h1         1 2V2       0.057700
     40 H5          20.2270     3.5720     2.9960 h1         1 2V2       0.057700
     41 H6          26.2510     5.3480     2.4670 ha         1 2V2       0.126000
     42 H7          28.2460     6.0410     3.7470 ha         1 2V2       0.123000
     43 H8          27.9910     7.6750     5.6130 ha         1 2V2       0.124000
     44 H9          22.8850     7.6910     5.6670 hc         1 2V2       0.051700
     45 H10         23.5790     9.2390     5.2170 hc         1 2V2       0.051700
     46 H11         22.7900     8.2370     3.9950 hc         1 2V2       0.051700
     47 H12         26.8080    10.2520     5.1880 h5         1 2V2       0.054800
     48 H13         26.1340    12.8270     8.8910 ha         1 2V2       0.132000
     49 H14         24.0000    10.3090    11.6430 ha         1 2V2       0.120000
     50 H15         24.0780     8.4810    10.0190 ha         1 2V2       0.134000
     51 H16         24.2760    14.9280    11.4300 hc         1 2V2       0.038033
     52 H17         24.8150    14.4150     9.8280 hc         1 2V2       0.038033
     53 H18         23.2800    13.8200    10.4740 hc         1 2V2       0.038033
     54 H19         24.3080    13.4090    13.3520 hc         1 2V2       0.038033
     55 H20         23.2610    12.2660    12.5090 hc         1 2V2       0.038033
     56 H21         24.7880    11.7160    13.2150 hc         1 2V2       0.038033
     57 H22         26.4670    14.1300    12.4430 hc         1 2V2       0.038033
     58 H23         27.0130    12.4650    12.1890 hc         1 2V2       0.038033
     59 H24         27.0260    13.6180    10.8480 hc         1 2V2       0.038033
     60 H25         21.7790     5.2220    -1.1140 hn         1 2V2       0.339500
     61 H26         22.2820     5.5000    -3.2180 hn         1 2V2       0.316500
     62 H27         23.5530     5.9760    -5.0440 h1         1 2V2       0.041367
     63 H28         24.2670     7.3010    -4.1070 h1         1 2V2       0.041367
     64 H29         25.0150     5.6970    -4.0820 h1         1 2V2       0.041367
@<TRIPOS>BOND
     1     1     2 1   
     2     1     6 1   
     3     1     7 2   
     4     2     3 2   
     5     2    31 1   
     6     3     4 1   
     7     3    36 1   
     8     4     5 2   
     9     4     9 1   
    10     5     6 1   
    11     5    37 1   
    12     6     8 1   
    13     8    38 1   
    14     8    39 1   
    15     8    40 1   
    16     9    10 ar  
    17     9    14 ar  
    18    10    11 ar  
    19    10    41 1   
    20    11    12 ar  
    21    11    42 1   
    22    12    13 ar  
    23    12    43 1   
    24    13    14 ar  
    25    13    16 1   
    26    14    15 1   
    27    15    44 1   
    28    15    45 1   
    29    15    46 1   
    30    16    17 1   
    31    16    19 1   
    32    17    18 2   
    33    17    47 1   
    34    18    22 1   
    35    19    20 2   
    36    19    21 1   
    37    21    22 ar  
    38    21    26 ar  
    39    22    23 ar  
    40    23    24 ar  
    41    23    48 1   
    42    24    25 ar  
    43    24    27 1   
    44    25    26 ar  
    45    25    49 1   
    46    26    50 1   
    47    27    28 1   
    48    27    29 1   
    49    27    30 1   
    50    28    51 1   
    51    28    52 1   
    52    28    53 1   
    53    29    54 1   
    54    29    55 1   
    55    29    56 1   
    56    30    57 1   
    57    30    58 1   
    58    30    59 1   
    59    31    32 1   
    60    31    60 1   
    61    32    33 2   
    62    32    34 1   
    63    34    35 1   
    64    34    61 1   
    65    35    62 1   
    66    35    63 1   
    67    35    64 1   
@<TRIPOS>SUBSTRUCTURE
     1 2V2         1 TEMP              0 ****  ****    0 ROOT
