@<TRIPOS>MOLECULE
2V3
   83    89     1     0     0
SMALL
No Charge or Current Charge


@<TRIPOS>ATOM
      1 C1          -1.8850    -1.8560     0.4840 cc         1 2V3       0.025800
      2 C2          -0.6010    -1.6810     0.0060 cd         1 2V3      -0.124000
      3 C3           0.2170    -2.8100    -0.3690 cd         1 2V3      -0.131200
      4 C4          -0.3900    -4.0530    -0.3630 cc         1 2V3      -0.028400
      5 C5          -2.4900    -3.2350     0.6040 c          1 2V3       0.531200
      6 N6          -1.6750    -4.2830     0.1280 n          1 2V3      -0.266000
      7 N7          -2.6450    -0.7400     0.8500 nu         1 2V3      -0.819900
      8 C8           1.5540    -2.6430    -0.9850 ca         1 2V3      -0.008800
      9 C9           1.7850    -3.3040    -2.2110 ca         1 2V3      -0.099000
     10 C10          2.9960    -3.1550    -2.8950 ca         1 2V3      -0.099000
     11 C11          4.0110    -2.3650    -2.3480 ca         1 2V3      -0.094000
     12 C12          3.8400    -1.7430    -1.0980 ca         1 2V3       0.044600
     13 C13          2.6010    -1.8640    -0.4020 ca         1 2V3      -0.051300
     14 N14          4.9580    -0.9970    -0.5720 n          1 2V3      -0.223200
     15 C15          5.5350    -1.4330     0.6250 cc         1 2V3      -0.004400
     16 C16          6.5770    -0.7490     1.2010 cd         1 2V3      -0.286200
     17 C17          5.4290     0.1670    -1.2400 c          1 2V3       0.578600
     18 C18          6.5890     0.9140    -0.6180 ca         1 2V3      -0.222600
     19 C19          7.1340     0.4480     0.5890 ca         1 2V3       0.050200
     20 C20          8.2060     1.1190     1.2010 ca         1 2V3      -0.148000
     21 C21          8.7600     2.2720     0.6200 ca         1 2V3       0.026700
     22 C22          8.2170     2.7420    -0.5900 ca         1 2V3      -0.195000
     23 C23          7.1450     2.0730    -1.2030 ca         1 2V3       0.247000
     24 O24          4.8930     0.5510    -2.2730 o          1 2V3      -0.520000
     25 C25          2.4390    -1.2220     0.9890 c3         1 2V3       0.204900
     26 O26          2.6430    -2.1960     2.0220 oh         1 2V3      -0.664000
     27 C27         -2.2240    -5.6590     0.1700 c3         1 2V3       0.076300
     28 O28         -3.6050    -3.4540     1.0720 o          1 2V3      -0.537000
     29 C29         -3.9340    -0.3490     0.5960 ca         1 2V3       0.607900
     30 C30          9.9120     2.9730     1.3000 cx         1 2V3      -0.104400
     31 F31          6.6730     2.5780    -2.3650 f          1 2V3      -0.153000
     32 C32         11.0360     3.6230     0.5220 cx         1 2V3      -0.115400
     33 C33         10.0610     4.4800     1.2920 cx         1 2V3      -0.115400
     34 C34         -4.7780    -0.9600    -0.3450 ca         1 2V3      -0.173000
     35 C35         -6.0690    -0.4370    -0.5430 ca         1 2V3      -0.069000
     36 C36         -6.4690     0.6930     0.1990 ca         1 2V3       0.180000
     37 C37         -5.5140     1.2330     1.1130 ca         1 2V3       0.331900
     38 N38         -4.2660     0.7310     1.3040 nb         1 2V3      -0.727000
     39 N39         -7.7750     1.2420     0.0210 nh         1 2V3      -0.768400
     40 C40         -8.2900     1.5470    -1.3540 c6         1 2V3       0.189300
     41 C41         -9.8490     1.6370    -1.4070 c6         1 2V3       0.161300
     42 N42        -10.4150     2.5930    -0.4050 n3         1 2V3      -0.718600
     43 C43         -9.9390     2.2140     0.9640 c6         1 2V3       0.161300
     44 C44         -8.3800     2.1290     1.0670 c6         1 2V3       0.189300
     45 C45        -11.8900     2.7060    -0.5170 c3         1 2V3       0.168800
     46 C46        -12.5160     3.8210     0.3450 c3         1 2V3      -0.090100
     47 H1          -0.2250    -0.6720    -0.1240 ha         1 2V3       0.201000
     48 H2           0.0940    -4.9650    -0.6980 h4         1 2V3       0.205000
     49 H3          -2.1450    -0.0000     1.3380 hn         1 2V3       0.509000
     50 H4           1.0010    -3.9020    -2.6670 ha         1 2V3       0.119000
     51 H5           3.1460    -3.6490    -3.8530 ha         1 2V3       0.122000
     52 H6           4.9530    -2.2620    -2.8820 ha         1 2V3       0.128000
     53 H7           5.0850    -2.3420     1.0120 h4         1 2V3       0.213000
     54 H8           6.9970    -1.1250     2.1300 ha         1 2V3       0.201000
     55 H9           8.6110     0.7370     2.1350 ha         1 2V3       0.121000
     56 H10          8.6180     3.6290    -1.0690 ha         1 2V3       0.134000
     57 H11          3.1500    -0.3950     1.1050 h1         1 2V3       0.037700
     58 H12          1.4550    -0.7620     1.1010 h1         1 2V3       0.037700
     59 H13          2.4650    -1.7450     2.8770 ho         1 2V3       0.446000
     60 H14         -3.1550    -5.7040    -0.4090 h1         1 2V3       0.056033
     61 H15         -1.5130    -6.3790    -0.2540 h1         1 2V3       0.056033
     62 H16         -2.4340    -5.9410     1.2100 h1         1 2V3       0.056033
     63 H17         10.2040     2.4770     2.2230 hc         1 2V3       0.084700
     64 H18         12.0450     3.5240     0.9160 hc         1 2V3       0.076200
     65 H19         10.9760     3.6320    -0.5630 hc         1 2V3       0.076200
     66 H20          9.3420     5.0670     0.7260 hc         1 2V3       0.076200
     67 H21         10.4150     4.9560     2.2030 hc         1 2V3       0.076200
     68 H22         -4.4400    -1.8170    -0.9160 ha         1 2V3       0.123000
     69 H23         -6.7440    -0.9080    -1.2510 ha         1 2V3       0.118000
     70 H24         -5.7540     2.1120     1.7090 h4         1 2V3       0.015100
     71 H25         -7.8720     2.5050    -1.6970 h1         1 2V3       0.042200
     72 H26         -7.9680     0.7810    -2.0730 h1         1 2V3       0.042200
     73 H27        -10.1440     1.9340    -2.4240 h1         1 2V3       0.038700
     74 H28        -10.2600     0.6300    -1.2380 h1         1 2V3       0.038700
     75 H30        -10.2830     2.9420     1.7110 h1         1 2V3       0.038700
     76 H31        -10.3590     1.2390     1.2500 h1         1 2V3       0.038700
     77 H32         -8.1260     1.7610     2.0710 h1         1 2V3       0.042200
     78 H33         -7.9670     3.1440     0.9750 h1         1 2V3       0.042200
     79 H34        -12.1550     2.9150    -1.5630 h1         1 2V3       0.028700
     80 H35        -12.3630     1.7510    -0.2530 h1         1 2V3       0.028700
     81 H36        -12.4240     3.5990     1.4140 hc         1 2V3       0.037033
     82 H37        -12.0320     4.7840     0.1420 hc         1 2V3       0.037033
     83 H38        -13.5830     3.9200     0.1130 hc         1 2V3       0.037033
@<TRIPOS>BOND
     1     1     2 2   
     2     1     5 1   
     3     1     7 1   
     4     2     3 1   
     5     2    47 1   
     6     3     4 2   
     7     3     8 1   
     8     4     6 1   
     9     4    48 1   
    10     5     6 1   
    11     5    28 2   
    12     6    27 1   
    13     7    29 1   
    14     7    49 1   
    15     8     9 ar  
    16     8    13 ar  
    17     9    10 ar  
    18     9    50 1   
    19    10    11 ar  
    20    10    51 1   
    21    11    12 ar  
    22    11    52 1   
    23    12    13 ar  
    24    12    14 1   
    25    13    25 1   
    26    14    15 1   
    27    14    17 1   
    28    15    16 2   
    29    15    53 1   
    30    16    19 1   
    31    16    54 1   
    32    17    18 1   
    33    17    24 2   
    34    18    19 ar  
    35    18    23 ar  
    36    19    20 ar  
    37    20    21 ar  
    38    20    55 1   
    39    21    22 ar  
    40    21    30 1   
    41    22    23 ar  
    42    22    56 1   
    43    23    31 1   
    44    25    26 1   
    45    25    57 1   
    46    25    58 1   
    47    26    59 1   
    48    27    60 1   
    49    27    61 1   
    50    27    62 1   
    51    29    34 ar  
    52    29    38 ar  
    53    30    32 1   
    54    30    33 1   
    55    30    63 1   
    56    32    33 1   
    57    32    64 1   
    58    32    65 1   
    59    33    66 1   
    60    33    67 1   
    61    34    35 ar  
    62    34    68 1   
    63    35    36 ar  
    64    35    69 1   
    65    36    37 ar  
    66    36    39 1   
    67    37    38 ar  
    68    37    70 1   
    69    39    40 1   
    70    39    44 1   
    71    40    41 1   
    72    40    71 1   
    73    40    72 1   
    74    41    42 1   
    75    41    73 1   
    76    41    74 1   
    77    42    43 1   
    78    42    45 1   
    79    43    44 1   
    80    43    75 1   
    81    43    76 1   
    82    44    77 1   
    83    44    78 1   
    84    45    46 1   
    85    45    79 1   
    86    45    80 1   
    87    46    81 1   
    88    46    82 1   
    89    46    83 1   
@<TRIPOS>SUBSTRUCTURE
     1 2V3         1 TEMP              0 ****  ****    0 ROOT
