@<TRIPOS>MOLECULE
2V3
   83    89     1     0     0
SMALL
abcg2


@<TRIPOS>ATOM
      1 C1          -1.8280    -1.1770     0.5010 cc         1 2V3       0.025800
      2 C2          -0.6310    -1.1050    -0.1460 cd         1 2V3      -0.124000
      3 C3           0.1360    -2.2670    -0.4080 cd         1 2V3      -0.131200
      4 C4          -0.3940    -3.4620    -0.0370 cc         1 2V3      -0.028400
      5 C5          -2.3530    -2.4560     0.9480 c          1 2V3       0.531200
      6 N6          -1.5890    -3.5550     0.5970 n          1 2V3      -0.266000
      7 N7          -2.5420    -0.0280     0.8310 nu         1 2V3      -0.819900
      8 C8           1.4320    -2.2140    -1.1210 ca         1 2V3      -0.008800
      9 C9           1.5270    -2.8080    -2.3780 ca         1 2V3      -0.099000
     10 C10          2.7190    -2.8050    -3.0830 ca         1 2V3      -0.099000
     11 C11          3.8370    -2.1970    -2.5350 ca         1 2V3      -0.094000
     12 C12          3.7470    -1.6090    -1.2850 ca         1 2V3       0.044600
     13 C13          2.5570    -1.5960    -0.5590 ca         1 2V3      -0.051300
     14 N14          4.9280    -1.0320    -0.7220 n          1 2V3      -0.223200
     15 C15          5.7440    -1.8230     0.0460 cc         1 2V3      -0.004400
     16 C16          6.8850    -1.3580     0.5790 cd         1 2V3      -0.286200
     17 C17          5.1950     0.2960    -1.0160 c          1 2V3       0.578600
     18 C18          6.4360     0.8160    -0.4440 ca         1 2V3      -0.222600
     19 C19          7.2700     0.0010     0.3500 ca         1 2V3       0.050200
     20 C20          8.4510     0.5190     0.8940 ca         1 2V3      -0.148000
     21 C21          8.8350     1.8290     0.6710 ca         1 2V3       0.026700
     22 C22          8.0110     2.6440    -0.1210 ca         1 2V3      -0.195000
     23 C23          6.8540     2.1380    -0.6510 ca         1 2V3       0.247000
     24 O24          4.4130     0.9320    -1.7030 o          1 2V3      -0.520000
     25 C25          2.5490    -1.0280     0.8340 c3         1 2V3       0.204900
     26 O26          3.1240    -1.9940     1.6890 oh         1 2V3      -0.664000
     27 C27         -2.0900    -4.8630     1.0000 c3         1 2V3       0.076300
     28 O28         -3.3910    -2.5960     1.5850 o          1 2V3      -0.537000
     29 C29         -3.8800     0.1750     0.5930 ca         1 2V3       0.607900
     30 C30         10.0900     2.3370     1.2600 cx         1 2V3      -0.104400
     31 F31          6.1120     2.9600    -1.3950 f          1 2V3      -0.153000
     32 C32         10.9650     3.3020     0.5010 cx         1 2V3      -0.115400
     33 C33         10.2170     3.7720     1.6980 cx         1 2V3      -0.115400
     34 C34         -4.5930    -0.5740    -0.3550 ca         1 2V3      -0.173000
     35 C35         -5.9260    -0.3000    -0.5420 ca         1 2V3      -0.069000
     36 C36         -6.5530     0.7300     0.1760 ca         1 2V3       0.180000
     37 C37         -5.7390     1.4310     1.0580 ca         1 2V3       0.331900
     38 N38         -4.4530     1.1540     1.2720 nb         1 2V3      -0.727000
     39 N39         -7.9200     0.9850     0.0070 nh         1 2V3      -0.768400
     40 C40         -8.3480     1.2720    -1.3550 c6         1 2V3       0.189300
     41 C41         -9.8590     1.2230    -1.4570 c6         1 2V3       0.161300
     42 N42        -10.4690     2.1560    -0.5310 n3         1 2V3      -0.718600
     43 C43        -10.0520     1.8380     0.8200 c6         1 2V3       0.161300
     44 C44         -8.5410     1.8910     0.9520 c6         1 2V3       0.189300
     45 C45        -11.9140     2.1820    -0.6820 c3         1 2V3       0.168800
     46 C46        -12.5780     3.3360     0.0510 c3         1 2V3      -0.090100
     47 H1          -0.2640    -0.1380    -0.4690 ha         1 2V3       0.201000
     48 H2           0.1200    -4.3950    -0.2160 h4         1 2V3       0.205000
     49 H3          -2.0760     0.6860     1.3680 hn         1 2V3       0.509000
     50 H4           0.6500    -3.2750    -2.8090 ha         1 2V3       0.119000
     51 H5           2.7780    -3.2720    -4.0570 ha         1 2V3       0.122000
     52 H6           4.7780    -2.1850    -3.0710 ha         1 2V3       0.128000
     53 H7           5.4110    -2.8400     0.1840 h4         1 2V3       0.213000
     54 H8           7.5040    -2.0080     1.1790 ha         1 2V3       0.201000
     55 H9           9.0700    -0.1260     1.5040 ha         1 2V3       0.121000
     56 H10          8.2670     3.6770    -0.3250 ha         1 2V3       0.134000
     57 H11          3.1110    -0.0880     0.8520 h1         1 2V3       0.037700
     58 H12          1.5300    -0.7820     1.1450 h1         1 2V3       0.037700
     59 H13          3.3250    -1.5650     2.5270 ho         1 2V3       0.446000
     60 H14         -3.0750    -5.0400     0.5730 h1         1 2V3       0.056033
     61 H15         -1.4080    -5.6270     0.6400 h1         1 2V3       0.056033
     62 H16         -2.1590    -4.9320     2.0840 h1         1 2V3       0.056033
     63 H17         10.6120     1.6100     1.8720 hc         1 2V3       0.084700
     64 H18         12.0350     3.1630     0.5810 hc         1 2V3       0.076200
     65 H19         10.6280     3.6210    -0.4780 hc         1 2V3       0.076200
     66 H20          9.3620     4.4210     1.5510 hc         1 2V3       0.076200
     67 H21         10.7670     3.9620     2.6100 hc         1 2V3       0.076200
     68 H22         -4.1110    -1.3460    -0.9410 ha         1 2V3       0.123000
     69 H23         -6.4900    -0.8920    -1.2520 ha         1 2V3       0.118000
     70 H24         -6.1320     2.2600     1.6360 h4         1 2V3       0.015100
     71 H25         -7.9900     2.2620    -1.6790 h1         1 2V3       0.042200
     72 H26         -7.9290     0.5360    -2.0400 h1         1 2V3       0.042200
     73 H27        -10.1500     1.4880    -2.4760 h1         1 2V3       0.038700
     74 H28        -10.1970     0.1870    -1.2810 h1         1 2V3       0.038700
     75 H30        -10.4750     2.5590     1.5210 h1         1 2V3       0.038700
     76 H31        -10.4070     0.8390     1.1280 h1         1 2V3       0.038700
     77 H32         -8.2710     1.5950     1.9670 h1         1 2V3       0.042200
     78 H33         -8.2030     2.9300     0.8120 h1         1 2V3       0.042200
     79 H34        -12.1290     2.2790    -1.7490 h1         1 2V3       0.028700
     80 H35        -12.3700     1.2290    -0.3610 h1         1 2V3       0.028700
     81 H36        -12.4760     3.2620     1.1330 hc         1 2V3       0.037033
     82 H37        -12.1550     4.2900    -0.2640 hc         1 2V3       0.037033
     83 H38        -13.6450     3.3500    -0.1710 hc         1 2V3       0.037033
@<TRIPOS>BOND
     1     1     2 2   
     2     1     5 1   
     3     1     7 1   
     4     2     3 1   
     5     2    47 1   
     6     3     4 2   
     7     3     8 1   
     8     4     6 1   
     9     4    48 1   
    10     5     6 1   
    11     5    28 2   
    12     6    27 1   
    13     7    29 1   
    14     7    49 1   
    15     8     9 ar  
    16     8    13 ar  
    17     9    10 ar  
    18     9    50 1   
    19    10    11 ar  
    20    10    51 1   
    21    11    12 ar  
    22    11    52 1   
    23    12    13 ar  
    24    12    14 1   
    25    13    25 1   
    26    14    15 1   
    27    14    17 1   
    28    15    16 2   
    29    15    53 1   
    30    16    19 1   
    31    16    54 1   
    32    17    18 1   
    33    17    24 2   
    34    18    19 ar  
    35    18    23 ar  
    36    19    20 ar  
    37    20    21 ar  
    38    20    55 1   
    39    21    22 ar  
    40    21    30 1   
    41    22    23 ar  
    42    22    56 1   
    43    23    31 1   
    44    25    26 1   
    45    25    57 1   
    46    25    58 1   
    47    26    59 1   
    48    27    60 1   
    49    27    61 1   
    50    27    62 1   
    51    29    34 ar  
    52    29    38 ar  
    53    30    32 1   
    54    30    33 1   
    55    30    63 1   
    56    32    33 1   
    57    32    64 1   
    58    32    65 1   
    59    33    66 1   
    60    33    67 1   
    61    34    35 ar  
    62    34    68 1   
    63    35    36 ar  
    64    35    69 1   
    65    36    37 ar  
    66    36    39 1   
    67    37    38 ar  
    68    37    70 1   
    69    39    40 1   
    70    39    44 1   
    71    40    41 1   
    72    40    71 1   
    73    40    72 1   
    74    41    42 1   
    75    41    73 1   
    76    41    74 1   
    77    42    43 1   
    78    42    45 1   
    79    43    44 1   
    80    43    75 1   
    81    43    76 1   
    82    44    77 1   
    83    44    78 1   
    84    45    46 1   
    85    45    79 1   
    86    45    80 1   
    87    46    81 1   
    88    46    82 1   
    89    46    83 1   
@<TRIPOS>SUBSTRUCTURE
     1 2V3         1 TEMP              0 ****  ****    0 ROOT
