@<TRIPOS>MOLECULE
2V4
   39    42     1     0     0
SMALL
bcc


@<TRIPOS>ATOM
      1 OAC         -0.0990    -2.2300     0.7580 o          1 2V4      -0.478100
      2 CAS         -0.6430    -1.2770     0.2510 c          1 2V4       0.587300
      3 CAX          0.1190    -0.0450    -0.1080 ca         1 2V4      -0.010600
      4 CAR          1.4810    -0.0860    -0.3860 ca         1 2V4      -0.171600
      5 CAN          2.1720    -1.3120    -0.8620 c          1 2V4       0.604700
      6 OAB          1.5770    -2.1780    -1.4640 o          1 2V4      -0.513100
      7 CAL          3.6710    -1.3870    -0.6870 c6         1 2V4      -0.210400
      8 CAY          4.2960    -0.1820     0.0110 c6         1 2V4       0.168800
      9 CAA          5.8110    -0.1950    -0.1410 c3         1 2V4      -0.121100
     10 OAG          3.9250    -0.1560     1.3780 oh         1 2V4      -0.586800
     11 CAM          3.6960     1.0790    -0.6010 c6         1 2V4      -0.037100
     12 CAQ          2.2120     1.1160    -0.3890 ca         1 2V4       0.042700
     13 CAK          1.5720     2.3210    -0.1940 ca         1 2V4      -0.193000
     14 CAP          0.1900     2.3810    -0.0220 ca         1 2V4       0.248100
     15 OAF         -0.3660     3.5730     0.1030 oh         1 2V4      -0.494100
     16 CAW         -0.5510     1.1780     0.0330 ca         1 2V4      -0.283600
     17 CAT         -2.0070     1.2280     0.1410 c          1 2V4       0.637300
     18 OAD         -2.5870     2.3210     0.2410 o          1 2V4      -0.626100
     19 CAV         -2.7750    -0.0060     0.0580 ca         1 2V4      -0.264600
     20 CAU         -2.1120    -1.2450     0.0700 ca         1 2V4      -0.075600
     21 CAJ         -2.8160    -2.4280    -0.0130 ca         1 2V4      -0.128000
     22 CAH         -4.2050    -2.3820    -0.1370 ca         1 2V4      -0.062000
     23 CAI         -4.8800    -1.1810    -0.1380 ca         1 2V4      -0.174000
     24 CAO         -4.1790     0.0250    -0.0250 ca         1 2V4       0.225100
     25 OAE         -4.8830     1.1490    -0.0040 oh         1 2V4      -0.494100
     26 H1           3.9060    -2.3120    -0.1490 hc         1 2V4       0.077700
     27 H2           4.1030    -1.5100    -1.6850 hc         1 2V4       0.077700
     28 H3           6.1080    -0.1410    -1.1890 hc         1 2V4       0.046700
     29 H4           6.2560     0.6540     0.3810 hc         1 2V4       0.046700
     30 H5           6.2360    -1.1110     0.2740 hc         1 2V4       0.046700
     31 H6           4.2680    -0.9510     1.8020 ho         1 2V4       0.407000
     32 H7           4.1520     1.9730    -0.1690 hc         1 2V4       0.069200
     33 H8           3.9180     1.1010    -1.6730 hc         1 2V4       0.069200
     34 H9           2.1390     3.2440    -0.1940 ha         1 2V4       0.157000
     35 H10         -1.3370     3.4540     0.2050 ho         1 2V4       0.482000
     36 H11         -2.3000    -3.3770     0.0030 ha         1 2V4       0.160000
     37 H12         -4.7650    -3.3030    -0.2270 ha         1 2V4       0.142000
     38 H13         -5.9590    -1.1560    -0.2170 ha         1 2V4       0.155000
     39 H14         -4.2680     1.9050     0.0970 ho         1 2V4       0.476000
@<TRIPOS>BOND
     1     1     2 2   
     2     2     3 1   
     3     2    20 1   
     4     3     4 ar  
     5     3    16 ar  
     6     4     5 1   
     7     4    12 ar  
     8     5     6 2   
     9     5     7 1   
    10     7     8 1   
    11     7    26 1   
    12     7    27 1   
    13     8     9 1   
    14     8    10 1   
    15     8    11 1   
    16     9    28 1   
    17     9    29 1   
    18     9    30 1   
    19    10    31 1   
    20    11    12 1   
    21    11    32 1   
    22    11    33 1   
    23    12    13 ar  
    24    13    14 ar  
    25    13    34 1   
    26    14    15 1   
    27    14    16 ar  
    28    15    35 1   
    29    16    17 1   
    30    17    18 2   
    31    17    19 1   
    32    19    20 ar  
    33    19    24 ar  
    34    20    21 ar  
    35    21    22 ar  
    36    21    36 1   
    37    22    23 ar  
    38    22    37 1   
    39    23    24 ar  
    40    23    38 1   
    41    24    25 1   
    42    25    39 1   
@<TRIPOS>SUBSTRUCTURE
     1 2V4         1 TEMP              0 ****  ****    0 ROOT
