@<TRIPOS>MOLECULE
2V4
   39    42     1     0     0
SMALL
No Charge or Current Charge


@<TRIPOS>ATOM
      1 OAC         -0.1640    -2.4410     0.1420 o          1 2V4      -0.478100
      2 CAS         -0.7070    -1.3620    -0.0710 c          1 2V4       0.587300
      3 CAX          0.0840    -0.0640    -0.1890 ca         1 2V4      -0.010600
      4 CAR          1.4870    -0.0640    -0.4510 ca         1 2V4      -0.171600
      5 CAN          2.2680    -1.2840    -0.8590 c          1 2V4       0.604700
      6 OAB          1.8930    -2.0240    -1.7600 o          1 2V4      -0.513100
      7 CAL          3.6490    -1.4600    -0.2160 c6         1 2V4      -0.210400
      8 CAY          4.4020    -0.1220     0.0640 c6         1 2V4       0.192000
      9 CAA          5.8890    -0.2340    -0.3660 c3         1 2V4      -0.121100
     10 OAG          4.3940     0.1240     1.4700 oh         1 2V4      -0.649000
     11 CAM          3.7300     1.0860    -0.6490 c6         1 2V4      -0.037100
     12 CAQ          2.2210     1.1310    -0.4010 ca         1 2V4       0.042700
     13 CAK          1.5720     2.3440    -0.1520 ca         1 2V4      -0.175000
     14 CAP          0.1900     2.3750     0.0420 ca         1 2V4       0.248100
     15 OAF         -0.3950     3.5840     0.2560 oh         1 2V4      -0.533100
     16 CAW         -0.5720     1.1840     0.0210 ca         1 2V4      -0.283600
     17 CAT         -2.0690     1.2370     0.2050 c          1 2V4       0.637300
     18 OAD         -2.6280     2.2990     0.4680 o          1 2V4      -0.626100
     19 CAV         -2.8760    -0.0230     0.0410 ca         1 2V4      -0.264600
     20 CAU         -2.2150    -1.2690    -0.1060 ca         1 2V4      -0.075600
     21 CAJ         -2.9820    -2.4480    -0.2530 ca         1 2V4      -0.110000
     22 CAH         -4.3840    -2.3970    -0.2640 ca         1 2V4      -0.044000
     23 CAI         -5.0340    -1.1650    -0.1180 ca         1 2V4      -0.156000
     24 CAO         -4.2910     0.0120     0.0380 ca         1 2V4       0.225100
     25 OAE         -4.9650     1.1850     0.1870 oh         1 2V4      -0.533100
     26 H1           3.4530    -1.9430     0.7500 hc         1 2V4       0.077700
     27 H2           4.2340    -2.1660    -0.8200 hc         1 2V4       0.077700
     28 H3           5.9780    -0.4070    -1.4460 hc         1 2V4       0.046700
     29 H4           6.4430     0.6840    -0.1340 hc         1 2V4       0.046700
     30 H5           6.3950    -1.0640     0.1410 hc         1 2V4       0.046700
     31 H6           5.0350    -0.5020     1.8720 ho         1 2V4       0.446000
     32 H7           4.2000     2.0220    -0.3170 hc         1 2V4       0.069200
     33 H8           3.9080     1.0270    -1.7320 hc         1 2V4       0.069200
     34 H9           2.1370     3.2720    -0.1240 ha         1 2V4       0.139000
     35 H10         -1.3600     3.3940     0.3950 ho         1 2V4       0.521000
     36 H11         -2.4920    -3.4140    -0.3630 ha         1 2V4       0.142000
     37 H12         -4.9630    -3.3110    -0.3820 ha         1 2V4       0.124000
     38 H13         -6.1200    -1.1220    -0.1210 ha         1 2V4       0.137000
     39 H14         -4.2700     1.8780     0.3350 ho         1 2V4       0.515000
@<TRIPOS>BOND
     1     1     2 2   
     2     2     3 1   
     3     2    20 1   
     4     3     4 ar  
     5     3    16 ar  
     6     4     5 1   
     7     4    12 ar  
     8     5     6 2   
     9     5     7 1   
    10     7     8 1   
    11     7    26 1   
    12     7    27 1   
    13     8     9 1   
    14     8    10 1   
    15     8    11 1   
    16     9    28 1   
    17     9    29 1   
    18     9    30 1   
    19    10    31 1   
    20    11    12 1   
    21    11    32 1   
    22    11    33 1   
    23    12    13 ar  
    24    13    14 ar  
    25    13    34 1   
    26    14    15 1   
    27    14    16 ar  
    28    15    35 1   
    29    16    17 1   
    30    17    18 2   
    31    17    19 1   
    32    19    20 ar  
    33    19    24 ar  
    34    20    21 ar  
    35    21    22 ar  
    36    21    36 1   
    37    22    23 ar  
    38    22    37 1   
    39    23    24 ar  
    40    23    38 1   
    41    24    25 1   
    42    25    39 1   
@<TRIPOS>SUBSTRUCTURE
     1 2V4         1 TEMP              0 ****  ****    0 ROOT
