@<TRIPOS>MOLECULE
2V5
   83    85     1     0     0
SMALL
No Charge or Current Charge


@<TRIPOS>ATOM
      1 C10         -1.3580     0.6870    -1.5520 c3         1 2V5      -0.070400
      2 C11         -2.3160     1.8610    -1.8760 c3         1 2V5      -0.075400
      3 C12         -1.7220     2.8590    -2.8890 c3         1 2V5       0.157600
      4 C15         -2.7700     6.1080    -3.9410 c2         1 2V5       0.746100
      5 C18         -0.9870    -1.5440    -0.1900 c          1 2V5       0.581100
      6 N02         -4.3430     2.6380     4.8040 n3         1 2V5      -0.713600
      7 C03         -4.8580     1.4390     4.1000 c6         1 2V5       0.124800
      8 C04         -4.1900     1.2260     2.7130 c6         1 2V5       0.086000
      9 N05         -2.6970     1.3640     2.6870 n          1 2V5      -0.390800
     10 C06         -1.9270     0.9480     1.5830 c          1 2V5       0.650100
     11 O07         -0.7430     1.2280     1.4810 o          1 2V5      -0.639100
     12 N08         -2.5860     0.2050     0.6280 ns         1 2V5      -0.485900
     13 C09         -1.9580    -0.3780    -0.5830 c3         1 2V5       0.050700
     14 O13         -2.6990     3.8920    -3.1110 os         1 2V5      -0.216300
     15 N14         -2.2210     4.8790    -4.0480 nu         1 2V5      -0.637900
     16 N16         -2.5260     6.5950    -2.7400 nv         1 2V5      -1.072200
     17 N17         -3.0620     6.7830    -4.9480 n2         1 2V5      -0.833100
     18 O19         -1.1280    -2.2030     0.8340 o          1 2V5      -0.598100
     19 N20          0.0390    -1.8130    -1.0760 ns         1 2V5      -0.506900
     20 C21          1.0520    -2.8510    -0.8830 c3         1 2V5       0.124900
     21 C22          2.1110    -2.3400     0.0710 c2         1 2V5      -0.083200
     22 C23          2.5620    -2.9990     1.1650 ce         1 2V5      -0.378100
     23 S24          3.7820    -2.3060     2.2700 sy         1 2V5       1.004600
     24 O25          4.3520    -3.4130     3.0500 o          1 2V5      -0.531000
     25 O26          4.6340    -1.4010     1.4870 o          1 2V5      -0.531000
     26 C27          2.7620    -1.3030     3.3690 ca         1 2V5      -0.263500
     27 C28          2.2420    -1.8570     4.5580 ca         1 2V5      -0.010000
     28 C29          1.4340    -1.0760     5.4040 ca         1 2V5      -0.129500
     29 C30          1.1410     0.2570     5.0680 ca         1 2V5      -0.064000
     30 C31          1.6550     0.8090     3.8830 ca         1 2V5      -0.129500
     31 C32          2.4600     0.0330     3.0310 ca         1 2V5      -0.010000
     32 C33          1.6640    -3.2990    -2.2280 c3         1 2V5      -0.085400
     33 C34          0.6450    -3.9340    -3.2020 c3         1 2V5      -0.027100
     34 C35          1.3070    -4.4030    -4.4910 ca         1 2V5      -0.086300
     35 C36          1.4360    -3.5240    -5.5830 ca         1 2V5      -0.106000
     36 C37          2.0510    -3.9540    -6.7720 ca         1 2V5      -0.107500
     37 C38          2.5430    -5.2670    -6.8740 ca         1 2V5      -0.108000
     38 C39          2.4190    -6.1480    -5.7860 ca         1 2V5      -0.107500
     39 C40          1.8030    -5.7170    -4.5980 ca         1 2V5      -0.106000
     40 C41         -2.1190     2.3500     3.6520 c6         1 2V5       0.086000
     41 C42         -2.8790     2.4980     4.9970 c6         1 2V5       0.124800
     42 H1          -1.0880     0.1980    -2.4960 hc         1 2V5       0.053700
     43 H2          -0.4290     1.0900    -1.1300 hc         1 2V5       0.053700
     44 H3          -3.2560     1.4610    -2.2770 hc         1 2V5       0.060700
     45 H4          -2.5620     2.4040    -0.9550 hc         1 2V5       0.060700
     46 H5          -0.7930     3.2830    -2.4850 h1         1 2V5       0.040200
     47 H6          -1.4880     2.3360    -3.8260 h1         1 2V5       0.040200
     48 H7          -4.9290     2.0640     6.7760 h1         1 2V5       0.032700
     49 H8          -4.6780     3.8120     6.5510 h1         1 2V5       0.032700
     50 H9          -6.1320     3.0340     5.8930 h1         1 2V5       0.032700
     51 H12         -5.9460     1.5150     3.9540 h1         1 2V5       0.047200
     52 H13         -4.4820     0.2280     2.3580 h1         1 2V5       0.062950
     53 H14         -4.6120     1.9590     2.0100 h1         1 2V5       0.062950
     54 H15         -3.5600     0.0030     0.8050 hn         1 2V5       0.308500
     55 H16         -2.7660    -0.8690    -1.1400 h1         1 2V5       0.061700
     56 H17         -2.3700     4.5260    -4.9910 hn         1 2V5       0.456000
     57 H18         -2.1290     5.8490    -2.1850 hn         1 2V5       0.457000
     58 H19         -1.9470     7.4240    -2.7660 hn         1 2V5       0.457000
     59 H20         -3.3040     7.7230    -4.6160 hn         1 2V5       0.380400
     60 H21          0.0940    -1.2360    -1.9050 hn         1 2V5       0.317500
     61 H22          0.5660    -3.7260    -0.4280 h1         1 2V5       0.089700
     62 H23          2.4980    -1.3510    -0.1870 ha         1 2V5       0.200000
     63 H25          2.2210    -3.9800     1.4950 h4         1 2V5       0.226000
     64 H27          2.4560    -2.8900     4.8300 ha         1 2V5       0.140000
     65 H28          1.0350    -1.5050     6.3190 ha         1 2V5       0.122500
     66 H29          0.5160     0.8590     5.7240 ha         1 2V5       0.113000
     67 H30          1.4250     1.8380     3.6180 ha         1 2V5       0.122500
     68 H31          2.8430     0.4730     2.1120 ha         1 2V5       0.140000
     69 H32          2.1450    -2.4410    -2.7140 hc         1 2V5       0.057700
     70 H33          2.4560    -4.0290    -2.0250 hc         1 2V5       0.057700
     71 H34          0.1500    -4.7780    -2.7050 hc         1 2V5       0.049700
     72 H35         -0.1470    -3.2110    -3.4330 hc         1 2V5       0.049700
     73 H36          1.0600    -2.5050    -5.5120 ha         1 2V5       0.109500
     74 H37          2.1480    -3.2710    -7.6120 ha         1 2V5       0.113500
     75 H38          3.0190    -5.6000    -7.7930 ha         1 2V5       0.114000
     76 H39          2.8000    -7.1640    -5.8630 ha         1 2V5       0.113500
     77 H40          1.7140    -6.4050    -3.7600 ha         1 2V5       0.109500
     78 H41         -1.0780     2.0800     3.8740 h1         1 2V5       0.062950
     79 H42         -2.0960     3.3320     3.1590 h1         1 2V5       0.062950
     80 H43         -2.4740     3.3700     5.5310 h1         1 2V5       0.047200
     81 H44         -2.6630     1.6150     5.6180 h1         1 2V5       0.047200
     82 H11         -4.6820     0.5410     4.7110 h1         1 2V5       0.047200
     83 C01         -5.0570     2.8990     6.0730 c3         1 2V5       0.151100
@<TRIPOS>BOND
     1     1     2 1   
     2     1    13 1   
     3     1    42 1   
     4     1    43 1   
     5     2     3 1   
     6     2    44 1   
     7     2    45 1   
     8     3    14 1   
     9     3    46 1   
    10     3    47 1   
    11     4    15 1   
    12     4    16 1   
    13     4    17 2   
    14     5    13 1   
    15     5    18 2   
    16     5    19 1   
    17     6     7 1   
    18     6    41 1   
    19     6    83 1   
    20     7     8 1   
    21     7    51 1   
    22     7    82 1   
    23     8     9 1   
    24     8    52 1   
    25     8    53 1   
    26     9    10 1   
    27     9    40 1   
    28    10    11 2   
    29    10    12 1   
    30    12    13 1   
    31    12    54 1   
    32    13    55 1   
    33    14    15 1   
    34    15    56 1   
    35    16    57 1   
    36    16    58 1   
    37    17    59 1   
    38    19    20 1   
    39    19    60 1   
    40    20    21 1   
    41    20    32 1   
    42    20    61 1   
    43    21    22 2   
    44    21    62 1   
    45    22    23 1   
    46    22    63 1   
    47    23    24 2   
    48    23    25 2   
    49    23    26 1   
    50    26    27 ar  
    51    26    31 ar  
    52    27    28 ar  
    53    27    64 1   
    54    28    29 ar  
    55    28    65 1   
    56    29    30 ar  
    57    29    66 1   
    58    30    31 ar  
    59    30    67 1   
    60    31    68 1   
    61    32    33 1   
    62    32    69 1   
    63    32    70 1   
    64    33    34 1   
    65    33    71 1   
    66    33    72 1   
    67    34    35 ar  
    68    34    39 ar  
    69    35    36 ar  
    70    35    73 1   
    71    36    37 ar  
    72    36    74 1   
    73    37    38 ar  
    74    37    75 1   
    75    38    39 ar  
    76    38    76 1   
    77    39    77 1   
    78    40    41 1   
    79    40    78 1   
    80    40    79 1   
    81    41    80 1   
    82    41    81 1   
    83    48    83 1   
    84    49    83 1   
    85    50    83 1   
@<TRIPOS>SUBSTRUCTURE
     1 2V5         1 TEMP              0 ****  ****    0 ROOT
