@<TRIPOS>MOLECULE
2V5
   83    85     1     0     0
SMALL
abcg2


@<TRIPOS>ATOM
      1 C10         -1.3240     1.3280    -1.7410 c3         1 2V5      -0.070400
      2 C11         -2.1270     2.5370    -2.2000 c3         1 2V5      -0.075400
      3 C12         -1.2890     3.4070    -3.1150 c3         1 2V5       0.157600
      4 C15         -0.9060     6.5070    -3.8510 c2         1 2V5       0.746100
      5 C18         -1.3360    -0.8100    -0.3110 c          1 2V5       0.581100
      6 N02         -3.8520     0.1180     4.4900 n3         1 2V5      -0.713600
      7 C03         -4.4140    -0.2630     3.2060 c6         1 2V5       0.124800
      8 C04         -4.6720     0.9710     2.3570 c6         1 2V5       0.086000
      9 N05         -3.4430     1.7260     2.1710 n          1 2V5      -0.390800
     10 C06         -2.5500     1.4900     1.1540 c          1 2V5       0.650100
     11 O07         -1.3850     1.8660     1.2120 o          1 2V5      -0.639100
     12 N08         -3.0470     0.9010     0.0270 ns         1 2V5      -0.485900
     13 C09         -2.1660     0.3170    -0.9490 c3         1 2V5       0.050700
     14 O13         -2.0760     4.5240    -3.4980 os         1 2V5      -0.216300
     15 N14         -1.3870     5.3150    -4.3880 nu         1 2V5      -0.637900
     16 N16         -0.4660     7.3660    -4.8290 nv         1 2V5      -1.072200
     17 N17         -0.8000     6.6580    -2.5910 n2         1 2V5      -0.833100
     18 O19         -1.5790    -1.2370     0.8020 o          1 2V5      -0.598100
     19 N20         -0.3700    -1.3340    -1.0940 ns         1 2V5      -0.506900
     20 C21          0.5660    -2.3290    -0.6120 c3         1 2V5       0.124900
     21 C22          1.6670    -1.6220     0.1230 c2         1 2V5      -0.083200
     22 C23          1.9890    -1.8710     1.3840 ce         1 2V5      -0.378100
     23 S24          3.2830    -0.9790     2.1690 sy         1 2V5       1.004600
     24 O25          4.1920    -1.9340     2.7970 o          1 2V5      -0.531000
     25 O26          3.8280    -0.0100     1.2200 o          1 2V5      -0.531000
     26 C27          2.4450    -0.0820     3.4480 ca         1 2V5      -0.263500
     27 C28          2.8150    -0.2730     4.7710 ca         1 2V5      -0.010000
     28 C29          2.1980     0.4880     5.7550 ca         1 2V5      -0.129500
     29 C30          1.2300     1.4200     5.4100 ca         1 2V5      -0.064000
     30 C31          0.8640     1.5930     4.0800 ca         1 2V5      -0.129500
     31 C32          1.4700     0.8410     3.0870 ca         1 2V5      -0.010000
     32 C33          1.1300    -3.1510    -1.7680 c3         1 2V5      -0.085400
     33 C34          0.0510    -3.9400    -2.5120 c3         1 2V5      -0.027100
     34 C35          0.6500    -4.8290    -3.5660 ca         1 2V5      -0.086300
     35 C36          0.8280    -4.3710    -4.8690 ca         1 2V5      -0.106000
     36 C37          1.4170    -5.1780    -5.8340 ca         1 2V5      -0.107500
     37 C38          1.8390    -6.4600    -5.5070 ca         1 2V5      -0.108000
     38 C39          1.6680    -6.9280    -4.2100 ca         1 2V5      -0.107500
     39 C40          1.0790    -6.1170    -3.2490 ca         1 2V5      -0.106000
     40 C41         -2.9050     2.1230     3.4620 c6         1 2V5       0.086000
     41 C42         -2.6380     0.8970     4.3220 c6         1 2V5       0.124800
     42 H1          -0.9350     0.8250    -2.6310 hc         1 2V5       0.053700
     43 H2          -0.4610     1.6520    -1.1600 hc         1 2V5       0.053700
     44 H3          -3.0280     2.2100    -2.7260 hc         1 2V5       0.060700
     45 H4          -2.4530     3.1180    -1.3350 hc         1 2V5       0.060700
     46 H5          -0.3830     3.7400    -2.5980 h1         1 2V5       0.040200
     47 H6          -0.9790     2.8420    -4.0020 h1         1 2V5       0.040200
     48 H7          -2.8990    -1.7480     4.8930 h1         1 2V5       0.032700
     49 H8          -3.2440    -0.7290     6.3000 h1         1 2V5       0.032700
     50 H9          -4.5580    -1.5770     5.4860 h1         1 2V5       0.032700
     51 H12         -5.3560    -0.7920     3.3720 h1         1 2V5       0.047200
     52 H13         -5.1400     0.6980     1.4140 h1         1 2V5       0.062950
     53 H14         -5.3890     1.6220     2.8650 h1         1 2V5       0.062950
     54 H15         -3.9590     0.4840     0.0600 hn         1 2V5       0.308500
     55 H16         -2.8270    -0.1730    -1.6710 h1         1 2V5       0.061700
     56 H17         -1.9450     5.4220    -5.2260 hn         1 2V5       0.456000
     57 H18         -0.8730     7.2850    -5.7480 hn         1 2V5       0.457000
     58 H19         -0.3540     8.3250    -4.5430 hn         1 2V5       0.457000
     59 H20         -0.3640     7.5490    -2.3790 hn         1 2V5       0.380400
     60 H21         -0.1650    -0.9050    -1.9830 hn         1 2V5       0.317500
     61 H22          0.0380    -2.9960     0.0710 h1         1 2V5       0.089700
     62 H23          2.1960    -0.8580    -0.4390 ha         1 2V5       0.200000
     63 H25          1.5000    -2.6120     2.0070 h4         1 2V5       0.226000
     64 H27          3.5700    -0.9990     5.0380 ha         1 2V5       0.140000
     65 H28          2.4780     0.3500     6.7910 ha         1 2V5       0.122500
     66 H29          0.7540     2.0140     6.1790 ha         1 2V5       0.113000
     67 H30          0.1070     2.3150     3.8120 ha         1 2V5       0.122500
     68 H31          1.1610     0.9670     2.0570 ha         1 2V5       0.140000
     69 H32          1.6670    -2.4990    -2.4650 hc         1 2V5       0.057700
     70 H33          1.8690    -3.8420    -1.3560 hc         1 2V5       0.057700
     71 H34         -0.5110    -4.5420    -1.7920 hc         1 2V5       0.049700
     72 H35         -0.6620    -3.2530    -2.9720 hc         1 2V5       0.049700
     73 H36          0.4960    -3.3730    -5.1320 ha         1 2V5       0.109500
     74 H37          1.5420    -4.8070    -6.8430 ha         1 2V5       0.113500
     75 H38          2.2960    -7.0920    -6.2580 ha         1 2V5       0.114000
     76 H39          1.9920    -7.9270    -3.9470 ha         1 2V5       0.113500
     77 H40          0.9470    -6.4910    -2.2400 ha         1 2V5       0.109500
     78 H41         -2.0010     2.7080     3.3290 h1         1 2V5       0.062950
     79 H42         -3.6420     2.7630     3.9540 h1         1 2V5       0.062950
     80 H43         -2.2800     1.2140     5.3050 h1         1 2V5       0.047200
     81 H44         -1.8310     0.3050     3.8560 h1         1 2V5       0.047200
     82 H11         -3.7440    -0.9420     2.6510 h1         1 2V5       0.047200
     83 C01         -3.6220    -1.0390     5.3250 c3         1 2V5       0.151100
@<TRIPOS>BOND
     1     1     2 1   
     2     1    13 1   
     3     1    42 1   
     4     1    43 1   
     5     2     3 1   
     6     2    44 1   
     7     2    45 1   
     8     3    14 1   
     9     3    46 1   
    10     3    47 1   
    11     4    15 1   
    12     4    16 1   
    13     4    17 2   
    14     5    13 1   
    15     5    18 2   
    16     5    19 1   
    17     6     7 1   
    18     6    41 1   
    19     6    83 1   
    20     7     8 1   
    21     7    51 1   
    22     7    82 1   
    23     8     9 1   
    24     8    52 1   
    25     8    53 1   
    26     9    10 1   
    27     9    40 1   
    28    10    11 2   
    29    10    12 1   
    30    12    13 1   
    31    12    54 1   
    32    13    55 1   
    33    14    15 1   
    34    15    56 1   
    35    16    57 1   
    36    16    58 1   
    37    17    59 1   
    38    19    20 1   
    39    19    60 1   
    40    20    21 1   
    41    20    32 1   
    42    20    61 1   
    43    21    22 2   
    44    21    62 1   
    45    22    23 1   
    46    22    63 1   
    47    23    24 2   
    48    23    25 2   
    49    23    26 1   
    50    26    27 ar  
    51    26    31 ar  
    52    27    28 ar  
    53    27    64 1   
    54    28    29 ar  
    55    28    65 1   
    56    29    30 ar  
    57    29    66 1   
    58    30    31 ar  
    59    30    67 1   
    60    31    68 1   
    61    32    33 1   
    62    32    69 1   
    63    32    70 1   
    64    33    34 1   
    65    33    71 1   
    66    33    72 1   
    67    34    35 ar  
    68    34    39 ar  
    69    35    36 ar  
    70    35    73 1   
    71    36    37 ar  
    72    36    74 1   
    73    37    38 ar  
    74    37    75 1   
    75    38    39 ar  
    76    38    76 1   
    77    39    77 1   
    78    40    41 1   
    79    40    78 1   
    80    40    79 1   
    81    41    80 1   
    82    41    81 1   
    83    48    83 1   
    84    49    83 1   
    85    50    83 1   
@<TRIPOS>SUBSTRUCTURE
     1 2V5         1 TEMP              0 ****  ****    0 ROOT
