@<TRIPOS>MOLECULE
2V6
   34    36     1     0     0
SMALL
abcg2


@<TRIPOS>ATOM
      1 F8          -3.9090    -0.7510    -2.1980 f          1 2V6      -0.145500
      2 C5          -2.9500    -0.7320    -1.2760 ca         1 2V6       0.287000
      3 C6          -1.7870    -1.4100    -1.5700 ca         1 2V6      -0.219000
      4 C4          -3.1380    -0.0370    -0.0860 ca         1 2V6      -0.321300
      5 C7          -4.3720     0.7260     0.2850 c3         1 2V6       0.384300
      6 F3          -4.9540     0.2110     1.3780 f          1 2V6      -0.103667
      7 F2          -4.0890     2.0050     0.5650 f          1 2V6      -0.103667
      8 F1          -5.2950     0.7370    -0.6730 f          1 2V6      -0.103667
      9 C3          -2.0740    -0.0920     0.8130 ca         1 2V6       0.287000
     10 F7          -2.2080     0.5320     1.9840 f          1 2V6      -0.145500
     11 C2          -0.9030    -0.7690     0.5780 ca         1 2V6      -0.219000
     12 C1          -0.7520    -1.4240    -0.6420 ca         1 2V6       0.392000
     13 N1           0.3920    -2.1490    -0.9540 nu         1 2V6      -0.976000
     14 C8           1.6170    -2.0340    -0.3750 cc         1 2V6       0.380000
     15 C9           2.4270    -3.0910    -0.0510 cd         1 2V6      -0.282000
     16 C10          3.7090    -2.8640     0.4920 cd         1 2V6       0.441300
     17 C13          4.5750    -4.0330     0.8240 c3         1 2V6      -0.156400
     18 N2           2.1480    -0.8000    -0.1510 na         1 2V6       0.057900
     19 C11          3.4010    -0.6360     0.3980 cc         1 2V6       0.437500
     20 N3           4.1830    -1.6570     0.7280 nc         1 2V6      -0.646000
     21 N5           1.6070     0.3860    -0.4470 nc         1 2V6      -0.540100
     22 C12          2.5480     1.2050    -0.0400 cd         1 2V6       0.429300
     23 N4           3.6510     0.6600     0.4790 nd         1 2V6      -0.336300
     24 C14          2.4010     2.6850    -0.1750 c3         1 2V6       0.325700
     25 F6           1.1880     3.0190    -0.6020 f          1 2V6      -0.095000
     26 F4           2.6130     3.2920     0.9940 f          1 2V6      -0.095000
     27 F5           3.2930     3.1740    -1.0420 f          1 2V6      -0.095000
     28 H1          -1.6900    -1.9160    -2.5220 ha         1 2V6       0.149000
     29 H2          -0.1490    -0.7970     1.3520 ha         1 2V6       0.149000
     30 H3           0.2440    -3.0090    -1.4630 hn         1 2V6       0.517000
     31 H4           2.0650    -4.0980    -0.1970 ha         1 2V6       0.145000
     32 H5           5.4320    -3.7270     1.4170 hc         1 2V6       0.066700
     33 H6           4.0160    -4.7930     1.3680 hc         1 2V6       0.066700
     34 H7           4.9390    -4.4980    -0.0950 hc         1 2V6       0.066700
@<TRIPOS>BOND
     1     1     2 1   
     2     2     3 ar  
     3     2     4 ar  
     4     3    12 ar  
     5     3    28 1   
     6     4     5 1   
     7     4     9 ar  
     8     5     6 1   
     9     5     7 1   
    10     5     8 1   
    11     9    10 1   
    12     9    11 ar  
    13    11    12 ar  
    14    11    29 1   
    15    12    13 1   
    16    13    14 1   
    17    13    30 1   
    18    14    15 2   
    19    14    18 1   
    20    15    16 1   
    21    15    31 1   
    22    16    17 1   
    23    16    20 2   
    24    17    32 1   
    25    17    33 1   
    26    17    34 1   
    27    18    19 1   
    28    18    21 1   
    29    19    20 1   
    30    19    23 2   
    31    21    22 2   
    32    22    23 1   
    33    22    24 1   
    34    24    25 1   
    35    24    26 1   
    36    24    27 1   
@<TRIPOS>SUBSTRUCTURE
     1 2V6         1 TEMP              0 ****  ****    0 ROOT
