@<TRIPOS>MOLECULE
2V6
   34    36     1     0     0
SMALL
No Charge or Current Charge


@<TRIPOS>ATOM
      1 F8          -3.9460    -0.8270    -2.3030 f          1 2V6      -0.145500
      2 C5          -3.0280    -0.7780    -1.3130 ca         1 2V6       0.287000
      3 C6          -1.8420    -1.4990    -1.4930 ca         1 2V6      -0.219000
      4 C4          -3.2490    -0.0290    -0.1330 ca         1 2V6      -0.321300
      5 C7          -4.5250     0.7850     0.1280 c3         1 2V6       0.384300
      6 F3          -5.1800     0.3310     1.2210 f          1 2V6      -0.103667
      7 F2          -4.2380     2.0870     0.3540 f          1 2V6      -0.103667
      8 F1          -5.4210     0.7680    -0.8840 f          1 2V6      -0.103667
      9 C3          -2.2400    -0.0460     0.8510 ca         1 2V6       0.287000
     10 F7          -2.3970     0.6380     2.0070 f          1 2V6      -0.145500
     11 C2          -1.0590    -0.7690     0.6660 ca         1 2V6      -0.219000
     12 C1          -0.8520    -1.4840    -0.5140 ca         1 2V6       0.392000
     13 N1           0.3120    -2.2180    -0.7100 nu         1 2V6      -0.976000
     14 C8           1.6190    -2.0380    -0.2920 cc         1 2V6       0.380000
     15 C9           2.4620    -3.0960    -0.0200 cd         1 2V6      -0.282000
     16 C10          3.8140    -2.9090     0.4350 cd         1 2V6       0.441300
     17 C13          4.7090    -4.0760     0.7360 c3         1 2V6      -0.156400
     18 N2           2.2130    -0.7770    -0.0940 na         1 2V6       0.057900
     19 C11          3.5090    -0.6870     0.3240 cc         1 2V6       0.437500
     20 N3           4.3590    -1.7150     0.6150 nc         1 2V6      -0.646000
     21 N5           1.6300     0.4260    -0.3520 nc         1 2V6      -0.540100
     22 C12          2.6390     1.2350    -0.0220 cd         1 2V6       0.429300
     23 N4           3.8030     0.5910     0.3920 nd         1 2V6      -0.336300
     24 C14          2.5230     2.7540    -0.1150 c3         1 2V6       0.325700
     25 F6           1.3780     3.2130     0.4440 f          1 2V6      -0.095000
     26 F4           3.5420     3.3910     0.5110 f          1 2V6      -0.095000
     27 F5           2.5300     3.1790    -1.4010 f          1 2V6      -0.095000
     28 H1          -1.6950    -2.0620    -2.4090 ha         1 2V6       0.149000
     29 H2          -0.3040    -0.7710     1.4450 ha         1 2V6       0.149000
     30 H3           0.1870    -3.0530    -1.2830 hn         1 2V6       0.517000
     31 H4           2.0900    -4.1050    -0.1410 ha         1 2V6       0.145000
     32 H5           5.1020    -4.0150     1.7580 hc         1 2V6       0.066700
     33 H6           4.1730    -5.0270     0.6420 hc         1 2V6       0.066700
     34 H7           5.5600    -4.1020     0.0460 hc         1 2V6       0.066700
@<TRIPOS>BOND
     1     1     2 1   
     2     2     3 ar  
     3     2     4 ar  
     4     3    12 ar  
     5     3    28 1   
     6     4     5 1   
     7     4     9 ar  
     8     5     6 1   
     9     5     7 1   
    10     5     8 1   
    11     9    10 1   
    12     9    11 ar  
    13    11    12 ar  
    14    11    29 1   
    15    12    13 1   
    16    13    14 1   
    17    13    30 1   
    18    14    15 2   
    19    14    18 1   
    20    15    16 1   
    21    15    31 1   
    22    16    17 1   
    23    16    20 2   
    24    17    32 1   
    25    17    33 1   
    26    17    34 1   
    27    18    19 1   
    28    18    21 1   
    29    19    20 1   
    30    19    23 2   
    31    21    22 2   
    32    22    23 1   
    33    22    24 1   
    34    24    25 1   
    35    24    26 1   
    36    24    27 1   
@<TRIPOS>SUBSTRUCTURE
     1 2V6         1 TEMP              0 ****  ****    0 ROOT
