@<TRIPOS>MOLECULE
2V7
   33    34     1     0     0
SMALL
No Charge or Current Charge


@<TRIPOS>ATOM
      1 C14          5.1600     0.9920     0.6330 c3         1 2V7      -0.127100
      2 C13          3.8180     0.2310     0.6690 c3         1 2V7       0.136300
      3 O03          4.0940    -1.1650     0.8950 oh         1 2V7      -0.657000
      4 C11          2.9770     0.4140    -0.6350 c3         1 2V7       0.193600
      5 O02          3.5900    -0.3380    -1.6910 oh         1 2V7      -0.650000
      6 C09          1.5110     0.0010    -0.4650 ca         1 2V7      -0.112300
      7 C10          0.5110     0.9940    -0.4030 ca         1 2V7      -0.078000
      8 C05         -0.8420     0.6400    -0.2410 ca         1 2V7      -0.069000
      9 C06         -1.8340     1.6360    -0.1790 ca         1 2V7      -0.061000
     10 C01         -3.1850     1.2810    -0.0170 ca         1 2V7      -0.179000
     11 C02         -3.5510    -0.0800     0.0840 ca         1 2V7       0.142100
     12 O01         -4.8600    -0.4870     0.2440 os         1 2V7      -0.344100
     13 C12         -5.9510     0.4480     0.3190 c3         1 2V7       0.150900
     14 C03         -2.5590    -1.0710     0.0230 ca         1 2V7      -0.150000
     15 C04         -1.2070    -0.7190    -0.1390 ca         1 2V7       0.006000
     16 C07         -0.2150    -1.7130    -0.2010 ca         1 2V7      -0.109000
     17 C08          1.1350    -1.3560    -0.3620 ca         1 2V7      -0.072000
     18 H1           5.8040     0.6220    -0.1740 hc         1 2V7       0.046700
     19 H2           4.9900     2.0630     0.4720 hc         1 2V7       0.046700
     20 H3           5.6980     0.8760     1.5820 hc         1 2V7       0.046700
     21 H4           3.2260     0.6380     1.5020 h1         1 2V7       0.075700
     22 H5           4.5080    -1.2390     1.7830 ho         1 2V7       0.438000
     23 H6           2.9940     1.4830    -0.8930 h1         1 2V7       0.076700
     24 H7           3.9860    -1.1070    -1.2210 ho         1 2V7       0.441000
     25 H8           0.7860     2.0440    -0.4790 ha         1 2V7       0.107000
     26 H9          -1.5610     2.6870    -0.2570 ha         1 2V7       0.112000
     27 H10         -3.9290     2.0710     0.0270 ha         1 2V7       0.116000
     28 H11         -6.9010    -0.0860     0.4460 h1         1 2V7       0.039700
     29 H12         -5.8260     1.1260     1.1730 h1         1 2V7       0.039700
     30 H13         -6.0170     1.0450    -0.6000 h1         1 2V7       0.039700
     31 H14         -2.8450    -2.1170     0.1010 ha         1 2V7       0.128000
     32 H15         -0.4870    -2.7630    -0.1230 ha         1 2V7       0.115000
     33 H16          1.8880    -2.1390    -0.4070 ha         1 2V7       0.109000
@<TRIPOS>BOND
     1     1     2 1   
     2     1    18 1   
     3     1    19 1   
     4     1    20 1   
     5     2     3 1   
     6     2     4 1   
     7     2    21 1   
     8     3    22 1   
     9     4     5 1   
    10     4     6 1   
    11     4    23 1   
    12     5    24 1   
    13     6     7 ar  
    14     6    17 ar  
    15     7     8 ar  
    16     7    25 1   
    17     8     9 ar  
    18     8    15 ar  
    19     9    10 ar  
    20     9    26 1   
    21    10    11 ar  
    22    10    27 1   
    23    11    12 1   
    24    11    14 ar  
    25    12    13 1   
    26    13    28 1   
    27    13    29 1   
    28    13    30 1   
    29    14    15 ar  
    30    14    31 1   
    31    15    16 ar  
    32    16    17 ar  
    33    16    32 1   
    34    17    33 1   
@<TRIPOS>SUBSTRUCTURE
     1 2V7         1 TEMP              0 ****  ****    0 ROOT
