@<TRIPOS>MOLECULE
2V7
   33    34     1     0     0
SMALL
abcg2


@<TRIPOS>ATOM
      1 C14          5.0750     1.0020     0.6920 c3         1 2V7      -0.127100
      2 C13          3.6880     0.3870     0.7680 c3         1 2V7       0.136300
      3 O03          3.7190    -0.9170     1.3180 oh         1 2V7      -0.657000
      4 C11          2.9780     0.3900    -0.5970 c3         1 2V7       0.193600
      5 O02          3.6660    -0.3800    -1.5570 oh         1 2V7      -0.650000
      6 C09          1.5250    -0.0070    -0.4630 ca         1 2V7      -0.112300
      7 C10          0.5570     0.9560    -0.3690 ca         1 2V7      -0.078000
      8 C05         -0.8090     0.6250    -0.2090 ca         1 2V7      -0.069000
      9 C06         -1.8180     1.6060    -0.1160 ca         1 2V7      -0.061000
     10 C01         -3.1360     1.2640     0.0320 ca         1 2V7      -0.179000
     11 C02         -3.5120    -0.0980     0.0930 ca         1 2V7       0.142100
     12 O01         -4.7880    -0.5080     0.2360 os         1 2V7      -0.344100
     13 C12         -5.8190     0.4580     0.2920 c3         1 2V7       0.150900
     14 C03         -2.5490    -1.0770     0.0050 ca         1 2V7      -0.150000
     15 C04         -1.1900    -0.7400    -0.1470 ca         1 2V7       0.006000
     16 C07         -0.1750    -1.7230    -0.2500 ca         1 2V7      -0.109000
     17 C08          1.1350    -1.3690    -0.4010 ca         1 2V7      -0.072000
     18 H1           5.7320     0.4340     0.0300 hc         1 2V7       0.046700
     19 H2           5.0240     2.0230     0.3120 hc         1 2V7       0.046700
     20 H3           5.5350     1.0380     1.6790 hc         1 2V7       0.046700
     21 H4           3.0750     0.9930     1.4430 h1         1 2V7       0.075700
     22 H5           4.5430    -1.3430     1.0620 ho         1 2V7       0.438000
     23 H6           3.0080     1.4210    -0.9640 h1         1 2V7       0.076700
     24 H7           3.7740    -1.2780    -1.2260 ho         1 2V7       0.441000
     25 H8           0.8320     2.0050    -0.4260 ha         1 2V7       0.107000
     26 H9          -1.5440     2.6530    -0.1640 ha         1 2V7       0.112000
     27 H10         -3.8750     2.0510     0.0980 ha         1 2V7       0.116000
     28 H11         -6.7510    -0.0930     0.3900 h1         1 2V7       0.039700
     29 H12         -5.7150     1.1230     1.1530 h1         1 2V7       0.039700
     30 H13         -5.8660     1.0610    -0.6180 h1         1 2V7       0.039700
     31 H14         -2.8390    -2.1210     0.0520 ha         1 2V7       0.128000
     32 H15         -0.4510    -2.7700    -0.2060 ha         1 2V7       0.115000
     33 H16          1.8750    -2.1540    -0.4760 ha         1 2V7       0.109000
@<TRIPOS>BOND
     1     1     2 1   
     2     1    18 1   
     3     1    19 1   
     4     1    20 1   
     5     2     3 1   
     6     2     4 1   
     7     2    21 1   
     8     3    22 1   
     9     4     5 1   
    10     4     6 1   
    11     4    23 1   
    12     5    24 1   
    13     6     7 ar  
    14     6    17 ar  
    15     7     8 ar  
    16     7    25 1   
    17     8     9 ar  
    18     8    15 ar  
    19     9    10 ar  
    20     9    26 1   
    21    10    11 ar  
    22    10    27 1   
    23    11    12 1   
    24    11    14 ar  
    25    12    13 1   
    26    13    28 1   
    27    13    29 1   
    28    13    30 1   
    29    14    15 ar  
    30    14    31 1   
    31    15    16 ar  
    32    16    17 ar  
    33    16    32 1   
    34    17    33 1   
@<TRIPOS>SUBSTRUCTURE
     1 2V7         1 TEMP              0 ****  ****    0 ROOT
