@<TRIPOS>MOLECULE
2V8
   47    50     1     0     0
SMALL
No Charge or Current Charge


@<TRIPOS>ATOM
      1 Cl1         -1.3010     4.2120    -1.7830 cl         1 2V8      -0.215000
      2 C2          -0.6560     3.1350    -0.5520 ca         1 2V8       0.117000
      3 C3          -0.3890     1.7950    -0.8650 ca         1 2V8      -0.093000
      4 C5           0.1310     0.9240     0.1120 ca         1 2V8       0.022800
      5 C6           0.3630     1.4020     1.4280 ca         1 2V8      -0.057300
      6 C7           0.0950     2.7540     1.7270 ca         1 2V8      -0.106000
      7 C9          -0.4110     3.6170     0.7410 ca         1 2V8      -0.108000
      8 C11          0.8790     0.4930     2.5420 c3         1 2V8      -0.052800
      9 N15          0.3700    -0.4050    -0.2420 na         1 2V8      -0.100300
     10 C16          1.5910    -1.0480    -0.2380 cc         1 2V8       0.420000
     11 N17          1.3910    -2.3470    -0.4270 nd         1 2V8      -0.621000
     12 C18          0.0050    -2.5500    -0.5710 cd         1 2V8       0.250500
     13 C19         -0.6240    -1.3140    -0.4850 cc         1 2V8      -0.160000
     14 C20         -2.0620    -1.0570    -0.5230 ca         1 2V8       0.049000
     15 C21         -2.7130    -0.5360     0.6120 ca         1 2V8      -0.098000
     16 C23         -4.0820    -0.2300     0.5640 ca         1 2V8       0.113000
     17 C24         -4.8110    -0.4320    -0.6190 ca         1 2V8      -0.115000
     18 C26         -4.1660    -0.9400    -1.7600 ca         1 2V8      -0.114000
     19 C28         -2.7940    -1.2450    -1.7120 ca         1 2V8      -0.045000
     20 Cl2         -4.8840     0.4200     1.9890 cl         1 2V8      -0.245000
     21 C31         -0.7020    -3.8980    -0.7560 c          1 2V8       0.626500
     22 O32         -0.0150    -4.9120    -0.8260 o          1 2V8      -0.703000
     23 O33         -1.9240    -3.9630    -0.8140 o          1 2V8      -0.703000
     24 C35          2.9160    -0.4300    -0.0420 ca         1 2V8      -0.090500
     25 C36          3.9730    -1.2020     0.4920 ca         1 2V8      -0.076000
     26 C38          5.2580    -0.6540     0.6670 ca         1 2V8      -0.089300
     27 C39          5.5030     0.6750     0.2800 ca         1 2V8      -0.121000
     28 C41          4.4740     1.4430    -0.2840 ca         1 2V8      -0.120000
     29 C43          3.1930     0.8940    -0.4540 ca         1 2V8      -0.108000
     30 C45          6.3750    -1.4990     1.2610 c3         1 2V8      -0.041800
     31 H1          -0.5840     1.4320    -1.8710 ha         1 2V8       0.147000
     32 H2           0.2730     3.1360     2.7300 ha         1 2V8       0.112000
     33 H3          -0.6180     4.6570     0.9820 ha         1 2V8       0.121000
     34 H4           1.9690     0.3930     2.4960 hc         1 2V8       0.053367
     35 H5           0.6280     0.8900     3.5320 hc         1 2V8       0.053367
     36 H6           0.4430    -0.5120     2.4820 hc         1 2V8       0.053367
     37 H7          -2.1560    -0.3670     1.5290 ha         1 2V8       0.123000
     38 H8          -5.8710    -0.1920    -0.6520 ha         1 2V8       0.111000
     39 H9          -4.7250    -1.0910    -2.6800 ha         1 2V8       0.107000
     40 H10         -2.2940    -1.6260    -2.6000 ha         1 2V8       0.138000
     41 H12          3.7910    -2.2330     0.7870 ha         1 2V8       0.140000
     42 H13          6.4930     1.1090     0.4050 ha         1 2V8       0.098000
     43 H14          4.6720     2.4650    -0.6000 ha         1 2V8       0.102000
     44 H15          2.4270     1.5040    -0.9240 ha         1 2V8       0.116000
     45 H16          6.8710    -2.0910     0.4830 hc         1 2V8       0.037033
     46 H17          7.1370    -0.8750     1.7440 hc         1 2V8       0.037033
     47 H18          5.9900    -2.1930     2.0180 hc         1 2V8       0.037033
@<TRIPOS>BOND
     1     1     2 1   
     2     2     3 ar  
     3     2     7 ar  
     4     3     4 ar  
     5     3    31 1   
     6     4     5 ar  
     7     4     9 1   
     8     5     6 ar  
     9     5     8 1   
    10     6     7 ar  
    11     6    32 1   
    12     7    33 1   
    13     8    34 1   
    14     8    35 1   
    15     8    36 1   
    16     9    10 1   
    17     9    13 1   
    18    10    11 2   
    19    10    24 1   
    20    11    12 1   
    21    12    13 2   
    22    12    21 1   
    23    13    14 1   
    24    14    15 ar  
    25    14    19 ar  
    26    15    16 ar  
    27    15    37 1   
    28    16    17 ar  
    29    16    20 1   
    30    17    18 ar  
    31    17    38 1   
    32    18    19 ar  
    33    18    39 1   
    34    19    40 1   
    35    21    22 1   
    36    21    23 1   
    37    24    25 ar  
    38    24    29 ar  
    39    25    26 ar  
    40    25    41 1   
    41    26    27 ar  
    42    26    30 1   
    43    27    28 ar  
    44    27    42 1   
    45    28    29 ar  
    46    28    43 1   
    47    29    44 1   
    48    30    45 1   
    49    30    46 1   
    50    30    47 1   
@<TRIPOS>SUBSTRUCTURE
     1 2V8         1 TEMP              0 ****  ****    0 ROOT
