@<TRIPOS>MOLECULE
2V8
   47    50     1     0     0
SMALL
bcc


@<TRIPOS>ATOM
      1 CL1         -1.2880     4.0940    -1.8190 cl         1 2V8      -0.123400
      2 C2          -0.6540     3.0550    -0.5870 ca         1 2V8       0.025400
      3 C3          -0.3930     1.7310    -0.8850 ca         1 2V8      -0.111000
      4 C5           0.1160     0.9040     0.1080 ca         1 2V8       0.022800
      5 C6           0.3570     1.3670     1.4000 ca         1 2V8      -0.057300
      6 C7           0.0900     2.7100     1.6550 ca         1 2V8      -0.124000
      7 C9          -0.4100     3.5580     0.6810 ca         1 2V8      -0.126000
      8 C11          0.8810     0.4760     2.4850 c3         1 2V8      -0.052800
      9 N15          0.3590    -0.4540    -0.2200 na         1 2V8      -0.151000
     10 C16          1.5690    -1.0820    -0.3100 cc         1 2V8       0.420000
     11 N17          1.4120    -2.3470    -0.5940 nd         1 2V8      -0.621000
     12 C18          0.0710    -2.5710    -0.7030 cd         1 2V8       0.315800
     13 C19         -0.6120    -1.4000    -0.4710 cc         1 2V8      -0.174600
     14 C20         -2.0370    -1.0530    -0.4600 ca         1 2V8       0.049000
     15 C21         -2.6120    -0.4970     0.6810 ca         1 2V8      -0.116000
     16 C23         -3.9460    -0.1250     0.6630 ca         1 2V8       0.021400
     17 C24         -4.7310    -0.2960    -0.4650 ca         1 2V8      -0.133000
     18 C26         -4.1520    -0.8550    -1.5970 ca         1 2V8      -0.132000
     19 C28         -2.8200    -1.2320    -1.5980 ca         1 2V8      -0.063000
     20 CL2         -4.6460     0.5700     2.0920 cl         1 2V8      -0.153400
     21 C31         -0.4940    -3.9360    -1.0000 c          1 2V8       0.837100
     22 O32          0.3320    -4.8330    -1.2500 o          1 2V8      -0.808300
     23 O33         -1.7350    -4.0370    -0.9640 o          1 2V8      -0.808300
     24 C35          2.8690    -0.4360    -0.1090 ca         1 2V8      -0.090500
     25 C36          3.8730    -1.1690     0.5270 ca         1 2V8      -0.094000
     26 C38          5.1380    -0.6360     0.7430 ca         1 2V8      -0.089300
     27 C39          5.3920     0.6640     0.3090 ca         1 2V8      -0.139000
     28 C41          4.4070     1.4000    -0.3340 ca         1 2V8      -0.138000
     29 C43          3.1480     0.8570    -0.5480 ca         1 2V8      -0.126000
     30 C45          6.2070    -1.4500     1.4110 c3         1 2V8      -0.041800
     31 H1          -0.5760     1.3370    -1.8750 ha         1 2V8       0.165000
     32 H2           0.2660     3.1040     2.6480 ha         1 2V8       0.130000
     33 H3          -0.6150     4.5950     0.9110 ha         1 2V8       0.139000
     34 H4           1.9700     0.4060     2.4420 hc         1 2V8       0.053367
     35 H5           0.6150     0.8680     3.4650 hc         1 2V8       0.053367
     36 H6           0.4890    -0.5380     2.4110 hc         1 2V8       0.053367
     37 H7          -2.0280    -0.3650     1.5820 ha         1 2V8       0.141000
     38 H8          -5.7710     0.0010    -0.4650 ha         1 2V8       0.129000
     39 H9          -4.7540    -0.9930    -2.4850 ha         1 2V8       0.125000
     40 H10         -2.3780    -1.6560    -2.4890 ha         1 2V8       0.156000
     41 H12          3.6520    -2.1730     0.8690 ha         1 2V8       0.158000
     42 H13          6.3680     1.1040     0.4750 ha         1 2V8       0.116000
     43 H14          4.6210     2.4040    -0.6760 ha         1 2V8       0.120000
     44 H15          2.4040     1.4390    -1.0750 ha         1 2V8       0.134000
     45 H16          6.7970    -2.0000     0.6750 hc         1 2V8       0.037033
     46 H17          6.8970    -0.8200     1.9720 hc         1 2V8       0.037033
     47 H18          5.7820    -2.1820     2.0970 hc         1 2V8       0.037033
@<TRIPOS>BOND
     1     1     2 1   
     2     2     3 ar  
     3     2     7 ar  
     4     3     4 ar  
     5     3    31 1   
     6     4     5 ar  
     7     4     9 1   
     8     5     6 ar  
     9     5     8 1   
    10     6     7 ar  
    11     6    32 1   
    12     7    33 1   
    13     8    34 1   
    14     8    35 1   
    15     8    36 1   
    16     9    10 1   
    17     9    13 1   
    18    10    11 2   
    19    10    24 1   
    20    11    12 1   
    21    12    13 2   
    22    12    21 1   
    23    13    14 1   
    24    14    15 ar  
    25    14    19 ar  
    26    15    16 ar  
    27    15    37 1   
    28    16    17 ar  
    29    16    20 1   
    30    17    18 ar  
    31    17    38 1   
    32    18    19 ar  
    33    18    39 1   
    34    19    40 1   
    35    21    22 1   
    36    21    23 1   
    37    24    25 ar  
    38    24    29 ar  
    39    25    26 ar  
    40    25    41 1   
    41    26    27 ar  
    42    26    30 1   
    43    27    28 ar  
    44    27    42 1   
    45    28    29 ar  
    46    28    43 1   
    47    29    44 1   
    48    30    45 1   
    49    30    46 1   
    50    30    47 1   
@<TRIPOS>SUBSTRUCTURE
     1 2V8         1 TEMP              0 ****  ****    0 ROOT
