@<TRIPOS>MOLECULE
2V9
   54    61     1     0     0
SMALL
abcg2


@<TRIPOS>ATOM
      1 O2          -9.7750     6.8270   -14.6260 o          1 2V9      -0.563000
      2 C25        -10.7950     6.9340   -13.9430 c          1 2V9       0.585600
      3 N3         -11.1050     6.1590   -12.8670 ns         1 2V9      -0.525900
      4 C24        -12.3630     6.5040   -12.2300 c5         1 2V9       0.151300
      5 C14        -12.8350     7.6490   -13.0780 ca         1 2V9      -0.057300
      6 C13        -11.9140     7.8930   -14.0880 ca         1 2V9      -0.135600
      7 C12        -12.1460     8.9110   -15.0360 cp         1 2V9       0.008000
      8 C11        -11.4740     9.4030   -16.2190 cp         1 2V9      -0.084000
      9 C10        -10.2890     9.0590   -16.8790 ca         1 2V9      -0.033000
     10 C9          -9.9380     9.7440   -18.0330 ca         1 2V9      -0.152000
     11 C8         -10.7520    10.7670   -18.5430 ca         1 2V9      -0.074000
     12 C7         -11.9330    11.1320   -17.9120 ca         1 2V9      -0.152000
     13 C6         -12.2810    10.4500   -16.7480 ca         1 2V9       0.012800
     14 N1         -13.3790    10.6120   -15.9260 na         1 2V9      -0.115600
     15 C23        -13.3190     9.6910   -14.9020 ca         1 2V9      -0.037200
     16 C22        -14.2370     9.4730   -13.8680 ca         1 2V9       0.020800
     17 C15        -14.0010     8.4130   -12.9610 cp         1 2V9      -0.064000
     18 C16        -15.1310     8.3750   -12.0720 cp         1 2V9      -0.077000
     19 C17        -15.4690     7.5330   -11.0100 ca         1 2V9      -0.056000
     20 C18        -16.6790     7.7170   -10.3620 ca         1 2V9      -0.142000
     21 C19        -17.5550     8.7260   -10.7810 ca         1 2V9      -0.084000
     22 C20        -17.2400     9.5780   -11.8310 ca         1 2V9      -0.144000
     23 C21        -16.0110     9.4170   -12.4730 ca         1 2V9       0.019800
     24 N2         -15.4340    10.1070   -13.5460 na         1 2V9      -0.121600
     25 C2         -15.9410    11.3360   -14.2170 c5         1 2V9       0.312000
     26 C1         -16.5440    12.3100   -13.2200 c3         1 2V9      -0.092100
     27 O1         -14.8410    11.9950   -14.8090 os         1 2V9      -0.426000
     28 C5         -14.5460    11.4400   -16.0930 c5         1 2V9       0.320300
     29 C4         -15.7970    10.6510   -16.5180 c5         1 2V9      -0.115400
     30 C3         -16.8450    10.9500   -15.4440 c5         1 2V9       0.148000
     31 O4         -17.6190     9.7860   -15.2070 oh         1 2V9      -0.690000
     32 C26        -17.7990    12.0630   -15.8820 c3         1 2V9       0.134600
     33 O3         -17.0730    13.2270   -16.2590 oh         1 2V9      -0.656000
     34 H1         -12.2170     6.7950   -11.1850 h1         1 2V9       0.058700
     35 H2          -9.6710     8.2670   -16.4810 ha         1 2V9       0.151000
     36 H3          -9.0240     9.4850   -18.5530 ha         1 2V9       0.116000
     37 H4         -10.4560    11.2820   -19.4480 ha         1 2V9       0.110000
     38 H5         -12.5590    11.9180   -18.3140 ha         1 2V9       0.113000
     39 H6         -14.7980     6.7410   -10.7040 ha         1 2V9       0.113000
     40 H7         -16.9570     7.0720    -9.5390 ha         1 2V9       0.115000
     41 H8         -18.5090     8.8460   -10.2820 ha         1 2V9       0.110000
     42 H9         -17.9550    10.3230   -12.1350 ha         1 2V9       0.106000
     43 H10        -15.9150    12.3790   -12.3340 hc         1 2V9       0.063367
     44 H11        -16.5980    13.2830   -13.7000 hc         1 2V9       0.063367
     45 H12        -17.5480    12.0270   -12.9190 hc         1 2V9       0.063367
     46 H13        -14.3090    12.2560   -16.7690 h2         1 2V9       0.106700
     47 H14        -16.1330    10.9470   -17.5090 hc         1 2V9       0.086200
     48 H15        -15.5880     9.5830   -16.5280 hc         1 2V9       0.086200
     49 H16        -18.3670    10.0080   -14.6360 ho         1 2V9       0.509000
     50 H17        -18.5020    12.2850   -15.0710 h1         1 2V9       0.034200
     51 H18        -18.3680    11.6690   -16.7290 h1         1 2V9       0.034200
     52 H19        -17.6890    13.8450   -16.6710 ho         1 2V9       0.452000
     53 H20        -10.4980     5.4260   -12.5380 hn         1 2V9       0.332500
     54 H21        -13.0640     5.6630   -12.2460 h1         1 2V9       0.058700
@<TRIPOS>BOND
     1     1     2 2   
     2     2     3 1   
     3     2     6 1   
     4     3     4 1   
     5     3    53 1   
     6     4     5 1   
     7     4    34 1   
     8     4    54 1   
     9     5     6 ar  
    10     5    17 ar  
    11     6     7 ar  
    12     7     8 1   
    13     7    15 ar  
    14     8     9 ar  
    15     8    13 ar  
    16     9    10 ar  
    17     9    35 1   
    18    10    11 ar  
    19    10    36 1   
    20    11    12 ar  
    21    11    37 1   
    22    12    13 ar  
    23    12    38 1   
    24    13    14 1   
    25    14    15 1   
    26    14    28 1   
    27    15    16 ar  
    28    16    17 ar  
    29    16    24 1   
    30    17    18 1   
    31    18    19 ar  
    32    18    23 ar  
    33    19    20 ar  
    34    19    39 1   
    35    20    21 ar  
    36    20    40 1   
    37    21    22 ar  
    38    21    41 1   
    39    22    23 ar  
    40    22    42 1   
    41    23    24 1   
    42    24    25 1   
    43    25    26 1   
    44    25    27 1   
    45    25    30 1   
    46    26    43 1   
    47    26    44 1   
    48    26    45 1   
    49    27    28 1   
    50    28    29 1   
    51    28    46 1   
    52    29    30 1   
    53    29    47 1   
    54    29    48 1   
    55    30    31 1   
    56    30    32 1   
    57    31    49 1   
    58    32    33 1   
    59    32    50 1   
    60    32    51 1   
    61    33    52 1   
@<TRIPOS>SUBSTRUCTURE
     1 2V9         1 TEMP              0 ****  ****    0 ROOT
