@<TRIPOS>MOLECULE
2V9
   54    61     1     0     0
SMALL
No Charge or Current Charge


@<TRIPOS>ATOM
      1 O2          -9.7480     6.8340   -14.5850 o          1 2V9      -0.563000
      2 C25        -10.7340     6.9690   -13.8820 c          1 2V9       0.585600
      3 N3         -11.0240     6.1860   -12.7720 ns         1 2V9      -0.525900
      4 C24        -12.3010     6.5800   -12.1210 c5         1 2V9       0.151300
      5 C14        -12.7360     7.7270   -12.9890 ca         1 2V9      -0.057300
      6 C13        -11.8370     7.9540   -14.0130 ca         1 2V9      -0.135600
      7 C12        -12.0890     8.9400   -15.0080 cp         1 2V9       0.008000
      8 C11        -11.4530     9.4150   -16.2440 cp         1 2V9      -0.084000
      9 C10        -10.2470     9.0810   -16.8950 ca         1 2V9      -0.033000
     10 C9          -9.9230     9.7380   -18.1030 ca         1 2V9      -0.152000
     11 C8         -10.7870    10.7130   -18.6560 ca         1 2V9      -0.074000
     12 C7         -11.9920    11.0510   -18.0070 ca         1 2V9      -0.152000
     13 C6         -12.2910    10.3890   -16.8100 ca         1 2V9       0.012800
     14 N1         -13.3990    10.5140   -15.9530 na         1 2V9      -0.115600
     15 C23        -13.2820     9.6580   -14.8670 ca         1 2V9      -0.037200
     16 C22        -14.1880     9.4380   -13.8250 ca         1 2V9       0.020800
     17 C15        -13.9420     8.4570   -12.8660 cp         1 2V9      -0.064000
     18 C16        -15.1130     8.3750   -12.0130 cp         1 2V9      -0.077000
     19 C17        -15.4190     7.5160   -10.9390 ca         1 2V9      -0.056000
     20 C18        -16.6930     7.6100   -10.3450 ca         1 2V9      -0.142000
     21 C19        -17.6490     8.5310   -10.8340 ca         1 2V9      -0.084000
     22 C20        -17.3420     9.3840   -11.9150 ca         1 2V9      -0.144000
     23 C21        -16.0560     9.3040   -12.4770 ca         1 2V9       0.019800
     24 N2         -15.4470    10.0130   -13.5540 na         1 2V9      -0.121600
     25 C2         -15.9600    11.2680   -14.2120 c5         1 2V9       0.312000
     26 C1         -16.5090    12.2620   -13.1500 c3         1 2V9      -0.092100
     27 O1         -14.8600    11.9700   -14.8380 os         1 2V9      -0.426000
     28 C5         -14.5730    11.3660   -16.1240 c5         1 2V9       0.320300
     29 C4         -15.8710    10.5940   -16.5270 c5         1 2V9      -0.115400
     30 C3         -16.9250    11.0360   -15.4630 c5         1 2V9       0.148000
     31 O4         -17.8720     9.9710   -15.2570 oh         1 2V9      -0.690000
     32 C26        -17.7570    12.2890   -15.9390 c3         1 2V9       0.134600
     33 O3         -16.9460    13.4070   -16.3380 oh         1 2V9      -0.656000
     34 H1         -12.1540     6.9030   -11.0820 h1         1 2V9       0.058700
     35 H2          -9.5690     8.3390   -16.4880 ha         1 2V9       0.151000
     36 H3          -8.9960     9.4900   -18.6160 ha         1 2V9       0.116000
     37 H4         -10.5200    11.2060   -19.5880 ha         1 2V9       0.110000
     38 H5         -12.6600    11.7990   -18.4260 ha         1 2V9       0.113000
     39 H6         -14.6960     6.7890   -10.5800 ha         1 2V9       0.113000
     40 H7         -16.9500     6.9570    -9.5150 ha         1 2V9       0.115000
     41 H8         -18.6360     8.5760   -10.3770 ha         1 2V9       0.110000
     42 H9         -18.0970    10.0620   -12.2940 ha         1 2V9       0.106000
     43 H10        -15.9150    12.2290   -12.2300 hc         1 2V9       0.063367
     44 H11        -16.4730    13.2940   -13.5180 hc         1 2V9       0.063367
     45 H12        -17.5520    12.0620   -12.8890 hc         1 2V9       0.063367
     46 H13        -14.3130    12.1430   -16.8530 h2         1 2V9       0.106700
     47 H14        -16.1820    10.8300   -17.5500 hc         1 2V9       0.086200
     48 H15        -15.7060     9.5110   -16.4980 hc         1 2V9       0.086200
     49 H16        -18.5810    10.3030   -14.6620 ho         1 2V9       0.509000
     50 H17        -18.4380    12.5940   -15.1330 h1         1 2V9       0.034200
     51 H18        -18.3860    11.9790   -16.7860 h1         1 2V9       0.034200
     52 H19        -17.5560    14.1200   -16.6330 ho         1 2V9       0.452000
     53 H20        -10.3980     5.4390   -12.4970 hn         1 2V9       0.332500
     54 H21        -13.0400     5.7690   -12.1380 h1         1 2V9       0.058700
@<TRIPOS>BOND
     1     1     2 2   
     2     2     3 1   
     3     2     6 1   
     4     3     4 1   
     5     3    53 1   
     6     4     5 1   
     7     4    34 1   
     8     4    54 1   
     9     5     6 ar  
    10     5    17 ar  
    11     6     7 ar  
    12     7     8 1   
    13     7    15 ar  
    14     8     9 ar  
    15     8    13 ar  
    16     9    10 ar  
    17     9    35 1   
    18    10    11 ar  
    19    10    36 1   
    20    11    12 ar  
    21    11    37 1   
    22    12    13 ar  
    23    12    38 1   
    24    13    14 1   
    25    14    15 1   
    26    14    28 1   
    27    15    16 ar  
    28    16    17 ar  
    29    16    24 1   
    30    17    18 1   
    31    18    19 ar  
    32    18    23 ar  
    33    19    20 ar  
    34    19    39 1   
    35    20    21 ar  
    36    20    40 1   
    37    21    22 ar  
    38    21    41 1   
    39    22    23 ar  
    40    22    42 1   
    41    23    24 1   
    42    24    25 1   
    43    25    26 1   
    44    25    27 1   
    45    25    30 1   
    46    26    43 1   
    47    26    44 1   
    48    26    45 1   
    49    27    28 1   
    50    28    29 1   
    51    28    46 1   
    52    29    30 1   
    53    29    47 1   
    54    29    48 1   
    55    30    31 1   
    56    30    32 1   
    57    31    49 1   
    58    32    33 1   
    59    32    50 1   
    60    32    51 1   
    61    33    52 1   
@<TRIPOS>SUBSTRUCTURE
     1 2V9         1 TEMP              0 ****  ****    0 ROOT
