@<TRIPOS>MOLECULE
2VA
   49    51     1     0     0
SMALL
bcc


@<TRIPOS>ATOM
      1 CG2         71.8740    31.2310    17.9140 c3         1 2VA      -0.095100
      2 CB          72.1310    30.7880    19.3510 c3         1 2VA      -0.056700
      3 CG1         73.4890    31.3080    19.8160 c3         1 2VA      -0.095100
      4 CA          71.0020    31.2560    20.2850 c3         1 2VA       0.098500
      5 N           71.2580    30.8470    21.6570 n8         1 2VA      -0.865800
      6 C           69.6780    30.6260    19.8550 c          1 2VA       0.674100
      7 O           69.4470    29.4380    20.0020 o          1 2VA      -0.559100
      8 NAZ         68.7870    31.4920    19.3280 ns         1 2VA      -0.571900
      9 C2          67.4680    31.1040    18.9020 c5         1 2VA       0.082700
     10 C3          67.3400    30.9450    17.3840 c5         1 2VA       0.097100
     11 O3          68.4510    30.3110    16.8340 oh         1 2VA      -0.560800
     12 C4          67.1390    32.3970    16.9430 c5         1 2VA       0.091100
     13 C5          66.4240    32.5430    15.6230 c3         1 2VA       0.144400
     14 O5          66.3380    33.9060    15.2910 oh         1 2VA      -0.579800
     15 O4          66.3690    32.9850    17.9930 os         1 2VA      -0.388600
     16 C1          66.4660    32.2380    19.1670 c5         1 2VA       0.246800
     17 N9          65.1500    31.7330    19.5240 na         1 2VA      -0.275000
     18 C8          64.0690    31.4910    18.7200 cc         1 2VA       0.414700
     19 N7          63.0470    31.0060    19.3630 nd         1 2VA      -0.553100
     20 C10         63.4710    30.9190    20.6630 ca         1 2VA      -0.228200
     21 C9          64.7780    31.3650    20.7840 ca         1 2VA       0.453800
     22 N3          65.5020    31.4160    21.9010 nb         1 2VA      -0.751000
     23 C7          64.8150    30.9840    22.9440 ca         1 2VA       0.711900
     24 N1          63.5650    30.5320    22.9820 nb         1 2VA      -0.826000
     25 C6          62.8540    30.4810    21.8500 ca         1 2VA       0.780200
     26 N6          61.6050    30.0110    21.8840 nv         1 2VA      -0.952500
     27 HG21        72.6860    30.9040    17.2640 hc         1 2VA       0.036367
     28 HG22        70.9480    30.8260    17.5050 hc         1 2VA       0.036367
     29 HG23        71.8180    32.3200    17.8450 hc         1 2VA       0.036367
     30 HB          72.1530    29.6940    19.3850 hc         1 2VA       0.082700
     31 HG11        73.4940    32.3990    19.8730 hc         1 2VA       0.036367
     32 HG12        73.7780    30.9140    20.7900 hc         1 2VA       0.036367
     33 HG13        74.2660    31.0120    19.1110 hc         1 2VA       0.036367
     34 HA          70.9260    32.3510    20.1780 h1         1 2VA       0.012700
     35 H           72.0830    31.3230    21.9970 hn         1 2VA       0.344300
     36 H2          70.5050    31.1640    22.2560 hn         1 2VA       0.344300
     37 HAZ         69.0770    32.4510    19.2150 hn         1 2VA       0.315500
     38 H6          67.1920    30.1950    19.4350 h1         1 2VA       0.123700
     39 H3          66.4190    30.3800    17.1800 h1         1 2VA       0.049700
     40 H1          68.2290    29.9970    15.9520 ho         1 2VA       0.411000
     41 H4          68.1160    32.8970    16.8820 h1         1 2VA       0.078700
     42 H5'1        65.4350    32.0710    15.6930 h1         1 2VA       0.022200
     43 H5'2        66.9950    31.9760    14.8750 h1         1 2VA       0.022200
     44 H5          65.8760    33.9820    14.4510 ho         1 2VA       0.409000
     45 H7          66.7930    32.8630    20.0030 h2         1 2VA       0.111700
     46 H8          64.0860    31.7000    17.6620 h5         1 2VA       0.068800
     47 HC2         65.3350    30.9970    23.8970 h5         1 2VA       0.047100
     48 HN61        61.0220    30.0320    21.0660 hn         1 2VA       0.451300
     49 HN62        61.1790    29.7760    22.7640 hn         1 2VA       0.451300
@<TRIPOS>BOND
     1     1     2 1   
     2     1    27 1   
     3     1    28 1   
     4     1    29 1   
     5     2     3 1   
     6     2     4 1   
     7     2    30 1   
     8     3    31 1   
     9     3    32 1   
    10     3    33 1   
    11     4     5 1   
    12     4     6 1   
    13     4    34 1   
    14     5    35 1   
    15     5    36 1   
    16     6     7 2   
    17     6     8 1   
    18     8     9 1   
    19     8    37 1   
    20     9    10 1   
    21     9    16 1   
    22     9    38 1   
    23    10    11 1   
    24    10    12 1   
    25    10    39 1   
    26    11    40 1   
    27    12    13 1   
    28    12    15 1   
    29    12    41 1   
    30    13    14 1   
    31    13    42 1   
    32    13    43 1   
    33    14    44 1   
    34    15    16 1   
    35    16    17 1   
    36    16    45 1   
    37    17    18 1   
    38    17    21 1   
    39    18    19 2   
    40    18    46 1   
    41    19    20 1   
    42    20    21 ar  
    43    20    25 ar  
    44    21    22 ar  
    45    22    23 ar  
    46    23    24 ar  
    47    23    47 1   
    48    24    25 ar  
    49    25    26 1   
    50    26    48 1   
    51    26    49 1   
@<TRIPOS>SUBSTRUCTURE
     1 2VA         1 TEMP              0 ****  ****    0 ROOT
