@<TRIPOS>MOLECULE
2VC
   81    83     1     0     0
SMALL
bcc


@<TRIPOS>ATOM
      1 C10         -1.5010    -0.8700     1.5420 c3         1 2VC      -0.084400
      2 C15         -2.9060    -4.8650     5.3420 c2         1 2VC       0.754100
      3 C21          0.9110     2.5080     0.5490 c3         1 2VC       0.123900
      4 C22          1.8790     1.8960    -0.4210 c2         1 2VC      -0.026200
      5 N02         -4.1390    -1.5070    -5.1870 n3         1 2VC      -0.713600
      6 C03         -4.7700    -0.7290    -4.1430 c6         1 2VC       0.149300
      7 C04         -4.3220    -1.1860    -2.7650 c6         1 2VC       0.104000
      8 N05         -2.8750    -1.1500    -2.6690 n          1 2VC      -0.484800
      9 C06         -2.1590    -0.8360    -1.5480 c          1 2VC       0.797100
     10 O07         -0.9430    -0.9840    -1.4900 o          1 2VC      -0.649100
     11 N08         -2.8500    -0.3500    -0.4800 ns         1 2VC      -0.568900
     12 C09         -2.1390     0.1970     0.6470 c3         1 2VC       0.055700
     13 C11         -2.4870    -1.9560     1.9500 c3         1 2VC      -0.079400
     14 C12         -1.8230    -2.9460     2.8840 c3         1 2VC       0.131400
     15 O13         -2.7810    -3.9460     3.2110 os         1 2VC      -0.223100
     16 N14         -2.2490    -4.8490     4.1080 nu         1 2VC      -0.623700
     17 N16         -2.5050    -5.9170     6.1210 nv         1 2VC      -0.917800
     18 N17         -3.6990    -3.9710     5.7840 n2         1 2VC      -0.862100
     19 C18         -1.1990     1.3170     0.1710 c          1 2VC       0.662100
     20 O19         -1.5110     2.0350    -0.7610 o          1 2VC      -0.591100
     21 N20         -0.0830     1.5140     0.9000 ns         1 2VC      -0.565900
     22 C23          2.0180     2.3140    -1.6710 ce         1 2VC      -0.321100
     23 S24          3.1990     1.5630    -2.7320 sy         1 2VC       1.085800
     24 O25          3.8080     2.6090    -3.5450 o          1 2VC      -0.574300
     25 O26          4.0430     0.6540    -1.9700 o          1 2VC      -0.574300
     26 C27          2.1790     0.5700    -3.8440 ca         1 2VC       0.509900
     27 N28          2.3720    -0.7250    -3.8240 nb         1 2VC      -0.621000
     28 C29          1.6500    -1.4210    -4.6990 ca         1 2VC       0.429200
     29 C30          0.7560    -0.8040    -5.5570 ca         1 2VC      -0.332600
     30 C31          0.6300     0.5730    -5.4550 ca         1 2VC       0.429200
     31 N32          1.3570     1.2720    -4.5920 nb         1 2VC      -0.621000
     32 C33          1.6370     2.9970     1.8010 c3         1 2VC      -0.084400
     33 C34          0.7260     3.7990     2.7300 c3         1 2VC      -0.028100
     34 C35          1.4430     4.2200     3.9820 ca         1 2VC      -0.085300
     35 C36          1.3610     3.4540     5.1430 ca         1 2VC      -0.125000
     36 C37          2.0510     3.8240     6.2910 ca         1 2VC      -0.125500
     37 C38          2.8380     4.9680     6.2930 ca         1 2VC      -0.127000
     38 C39          2.9280     5.7390     5.1410 ca         1 2VC      -0.125500
     39 C40          2.2360     5.3660     3.9970 ca         1 2VC      -0.125000
     40 C41         -2.2180    -1.8850    -3.7320 c6         1 2VC       0.104000
     41 C42         -2.6990    -1.4030    -5.0870 c6         1 2VC       0.149300
     42 H1          -0.6410    -1.3180     1.0420 hc         1 2VC       0.057700
     43 H2          -1.1340    -0.3860     2.4530 hc         1 2VC       0.057700
     44 H3           0.4000     3.3480     0.0760 h1         1 2VC       0.093700
     45 H4           2.4690     1.0650    -0.0460 ha         1 2VC       0.149000
     46 H6          -4.1510    -1.7490    -7.2600 h1         1 2VC       0.033367
     47 H7          -5.6940    -1.2600    -6.5600 h1         1 2VC       0.033367
     48 H8          -4.3940    -0.0720    -6.7460 h1         1 2VC       0.033367
     49 H11         -5.8530    -0.8470    -4.2120 h1         1 2VC       0.040450
     50 H12         -4.7930    -0.5260    -2.0400 h1         1 2VC       0.052450
     51 H13         -4.6920    -2.2000    -2.5710 h1         1 2VC       0.052450
     52 H14         -3.8120    -0.0770    -0.5690 hn         1 2VC       0.318500
     53 H15         -2.8970     0.7090     1.2490 h1         1 2VC       0.066700
     54 H16         -3.3530    -1.5070     2.4470 hc         1 2VC       0.056200
     55 H17         -2.8570    -2.4760     1.0630 hc         1 2VC       0.056200
     56 H18         -0.9510    -3.4020     2.4010 h1         1 2VC       0.043200
     57 H19         -1.4740    -2.4430     3.7930 h1         1 2VC       0.043200
     58 H20         -2.1750    -5.7560     3.6590 hn         1 2VC       0.399800
     59 H21         -2.1760    -6.7510     5.6620 hn         1 2VC       0.413300
     60 H22         -3.1060    -6.1070     6.9050 hn         1 2VC       0.413300
     61 H23         -3.8580    -3.2580     5.0830 hn         1 2VC       0.400400
     62 H24          0.1860     0.8280     1.5860 hn         1 2VC       0.317500
     63 H25          1.4520     3.1260    -2.1110 h4         1 2VC       0.190000
     64 H27          1.7930    -2.4940    -4.7120 h4         1 2VC       0.031100
     65 H28          0.1800    -1.3720    -6.2720 ha         1 2VC       0.150000
     66 H29         -0.0590     1.1250    -6.0810 h4         1 2VC       0.031100
     67 H30          2.0620     2.1410     2.3350 hc         1 2VC       0.055200
     68 H31          2.4820     3.6160     1.4920 hc         1 2VC       0.055200
     69 H32          0.3600     4.6790     2.1950 hc         1 2VC       0.051700
     70 H33         -0.1520     3.2040     2.9930 hc         1 2VC       0.051700
     71 H34          0.7460     2.5620     5.1530 ha         1 2VC       0.128000
     72 H35          1.9700     3.2190     7.1850 ha         1 2VC       0.131500
     73 H36          3.3760     5.2580     7.1860 ha         1 2VC       0.131000
     74 H37          3.5360     6.6350     5.1340 ha         1 2VC       0.131500
     75 H38          2.3080     5.9750     3.1030 ha         1 2VC       0.128000
     76 H39         -1.1440    -1.7460    -3.6510 h1         1 2VC       0.052450
     77 H40         -2.4250    -2.9580    -3.6340 h1         1 2VC       0.052450
     78 H41         -2.2410    -2.0220    -5.8630 h1         1 2VC       0.040450
     79 H42         -2.3510    -0.3660    -5.2490 h1         1 2VC       0.040450
     80 H10         -4.5530     0.3490    -4.2480 h1         1 2VC       0.040450
     81 C01         -4.6130    -1.1220    -6.4970 c3         1 2VC       0.151100
@<TRIPOS>BOND
     1     1    12 1   
     2     1    13 1   
     3     1    42 1   
     4     1    43 1   
     5     2    16 1   
     6     2    17 1   
     7     2    18 2   
     8     3     4 1   
     9     3    21 1   
    10     3    32 1   
    11     3    44 1   
    12     4    22 2   
    13     4    45 1   
    14     5     6 1   
    15     5    41 1   
    16     5    81 1   
    17     6     7 1   
    18     6    49 1   
    19     6    80 1   
    20     7     8 1   
    21     7    50 1   
    22     7    51 1   
    23     8     9 1   
    24     8    40 1   
    25     9    10 2   
    26     9    11 1   
    27    11    12 1   
    28    11    52 1   
    29    12    19 1   
    30    12    53 1   
    31    13    14 1   
    32    13    54 1   
    33    13    55 1   
    34    14    15 1   
    35    14    56 1   
    36    14    57 1   
    37    15    16 1   
    38    16    58 1   
    39    17    59 1   
    40    17    60 1   
    41    18    61 1   
    42    19    20 2   
    43    19    21 1   
    44    21    62 1   
    45    22    23 1   
    46    22    63 1   
    47    23    24 2   
    48    23    25 2   
    49    23    26 1   
    50    26    27 ar  
    51    26    31 ar  
    52    27    28 ar  
    53    28    29 ar  
    54    28    64 1   
    55    29    30 ar  
    56    29    65 1   
    57    30    31 ar  
    58    30    66 1   
    59    32    33 1   
    60    32    67 1   
    61    32    68 1   
    62    33    34 1   
    63    33    69 1   
    64    33    70 1   
    65    34    35 ar  
    66    34    39 ar  
    67    35    36 ar  
    68    35    71 1   
    69    36    37 ar  
    70    36    72 1   
    71    37    38 ar  
    72    37    73 1   
    73    38    39 ar  
    74    38    74 1   
    75    39    75 1   
    76    40    41 1   
    77    40    76 1   
    78    40    77 1   
    79    41    78 1   
    80    41    79 1   
    81    46    81 1   
    82    47    81 1   
    83    48    81 1   
@<TRIPOS>SUBSTRUCTURE
     1 2VC         1 TEMP              0 ****  ****    0 ROOT
