@<TRIPOS>MOLECULE
2VC
   81    83     1     0     0
SMALL
No Charge or Current Charge


@<TRIPOS>ATOM
      1 C10         -1.4660    -0.5090     1.3940 c3         1 2VC      -0.084400
      2 C15         -3.6090    -5.0520     4.7680 c2         1 2VC       0.754100
      3 C21          1.1550     2.8580     0.6370 c3         1 2VC       0.123900
      4 C22          2.0970     2.3430    -0.4300 c2         1 2VC      -0.076200
      5 N02         -4.4880    -2.6060    -4.8710 n3         1 2VC      -0.713600
      6 C03         -4.9340    -1.3350    -4.2470 c6         1 2VC       0.149300
      7 C04         -4.2670    -1.0760    -2.8670 c6         1 2VC       0.104000
      8 N05         -2.7840    -1.2960    -2.8160 n          1 2VC      -0.417800
      9 C06         -1.9990    -0.8540    -1.7350 c          1 2VC       0.663100
     10 O07         -0.8270    -1.1740    -1.6160 o          1 2VC      -0.649100
     11 N08         -2.6290    -0.0390    -0.8220 ns         1 2VC      -0.501900
     12 C09         -1.9900     0.5530     0.3780 c3         1 2VC       0.055700
     13 C11         -2.4950    -1.6130     1.7440 c3         1 2VC      -0.079400
     14 C12         -1.9730    -2.6070     2.8000 c3         1 2VC       0.154600
     15 O13         -3.0120    -3.5740     3.0450 os         1 2VC      -0.246300
     16 N14         -2.6110    -4.5410     4.0300 nu         1 2VC      -0.678900
     17 N16         -3.5040    -6.3660     4.7920 nv         1 2VC      -1.028200
     18 N17         -4.2140    -4.3620     5.6090 n2         1 2VC      -0.862100
     19 C18         -0.9540     1.6540    -0.0350 c          1 2VC       0.595100
     20 O19         -1.0580     2.3020    -1.0700 o          1 2VC      -0.591100
     21 N20          0.0860     1.8810     0.8470 ns         1 2VC      -0.498900
     22 C23          2.4360     3.0100    -1.5590 ce         1 2VC      -0.371100
     23 S24          3.4960     2.3010    -2.8120 sy         1 2VC       0.944200
     24 O25          3.9690     3.4100    -3.6540 o          1 2VC      -0.503500
     25 O26          4.4420     1.4000    -2.1370 o          1 2VC      -0.503500
     26 C27          2.3290     1.3000    -3.7720 ca         1 2VC      -0.016100
     27 N28          2.2390    -0.0150    -3.4590 nb         1 2VC      -0.095000
     28 C29          1.3580    -0.7490    -4.1690 ca         1 2VC       0.100900
     29 C30          0.5730    -0.1740    -5.1840 ca         1 2VC      -0.184000
     30 C31          0.7370     1.1990    -5.4330 ca         1 2VC       0.100900
     31 N32          1.6160     1.9420    -4.7290 nb         1 2VC      -0.095000
     32 C33          1.8990     3.1720     1.9530 c3         1 2VC      -0.084400
     33 C34          1.0090     3.8140     3.0430 c3         1 2VC      -0.028100
     34 C35          1.8010     4.1460     4.3000 ca         1 2VC      -0.085300
     35 C36          1.9450     3.1880     5.3230 ca         1 2VC      -0.107000
     36 C37          2.6800     3.4930     6.4820 ca         1 2VC      -0.107500
     37 C38          3.2770     4.7570     6.6240 ca         1 2VC      -0.109000
     38 C39          3.1380     5.7160     5.6070 ca         1 2VC      -0.107500
     39 C40          2.4030     5.4110     4.4480 ca         1 2VC      -0.107000
     40 C41         -2.2640    -2.3840    -3.7020 c6         1 2VC       0.104000
     41 C42         -3.0160    -2.5700    -5.0470 c6         1 2VC       0.149300
     42 H1          -0.5570    -0.9800     1.0000 hc         1 2VC       0.057700
     43 H2          -1.1810    -0.0030     2.3240 hc         1 2VC       0.057700
     44 H3           0.6980     3.7910     0.2780 h1         1 2VC       0.093700
     45 H4           2.4860     1.3410    -0.2310 ha         1 2VC       0.199000
     46 H6          -4.8770    -3.8590    -6.5490 h1         1 2VC       0.033367
     47 H7          -6.2860    -2.9520    -5.9620 h1         1 2VC       0.033367
     48 H8          -5.0120    -2.1160    -6.8820 h1         1 2VC       0.033367
     49 H11         -6.0260    -1.3360    -4.1110 h1         1 2VC       0.040450
     50 H12         -4.5030    -0.0440    -2.5760 h1         1 2VC       0.052450
     51 H13         -4.7340    -1.7410    -2.1260 h1         1 2VC       0.052450
     52 H14         -3.5940     0.1910    -1.0130 hn         1 2VC       0.318500
     53 H15         -2.7790     1.1070     0.9040 h1         1 2VC       0.066700
     54 H16         -3.4140    -1.1450     2.1170 hc         1 2VC       0.056200
     55 H17         -2.7600    -2.1730     0.8390 hc         1 2VC       0.056200
     56 H18         -1.0650    -3.0980     2.4250 h1         1 2VC       0.043200
     57 H19         -1.7210    -2.0660     3.7220 h1         1 2VC       0.043200
     58 H20         -2.1050    -5.2910     3.5690 hn         1 2VC       0.455000
     59 H21         -3.7850    -6.7780     3.9110 hn         1 2VC       0.468500
     60 H22         -4.0310    -6.7440     5.5690 hn         1 2VC       0.468500
     61 H23         -3.9210    -3.3990     5.4050 hn         1 2VC       0.400400
     62 H24          0.1120     1.3130     1.6840 hn         1 2VC       0.317500
     63 H25          2.0790     4.0020    -1.8370 h4         1 2VC       0.240000
     64 H27          1.2840    -1.8070    -3.9220 h4         1 2VC       0.031100
     65 H28         -0.1340    -0.7690    -5.7560 ha         1 2VC       0.132000
     66 H29          0.1620     1.7110    -6.2030 h4         1 2VC       0.031100
     67 H30          2.3490     2.2520     2.3470 hc         1 2VC       0.055200
     68 H31          2.7280     3.8560     1.7310 hc         1 2VC       0.055200
     69 H32          0.5450     4.7220     2.6390 hc         1 2VC       0.051700
     70 H33          0.1840     3.1360     3.2930 hc         1 2VC       0.051700
     71 H34          1.4890     2.2060     5.2190 ha         1 2VC       0.110000
     72 H35          2.7880     2.7490     7.2680 ha         1 2VC       0.113500
     73 H36          3.8460     4.9930     7.5210 ha         1 2VC       0.113000
     74 H37          3.6010     6.6950     5.7150 ha         1 2VC       0.113500
     75 H38          2.3030     6.1580     3.6640 ha         1 2VC       0.110000
     76 H39         -1.2030    -2.2050    -3.9220 h1         1 2VC       0.052450
     77 H40         -2.3180    -3.3280    -3.1430 h1         1 2VC       0.052450
     78 H41         -2.6620    -3.4990    -5.5180 h1         1 2VC       0.040450
     79 H42         -2.7370    -1.7450    -5.7200 h1         1 2VC       0.040450
     80 H10         -4.6980    -0.4900    -4.9110 h1         1 2VC       0.040450
     81 C01         -5.2020    -2.8970    -6.1330 c3         1 2VC       0.151100
@<TRIPOS>BOND
     1     1    12 1   
     2     1    13 1   
     3     1    42 1   
     4     1    43 1   
     5     2    16 1   
     6     2    17 1   
     7     2    18 2   
     8     3     4 1   
     9     3    21 1   
    10     3    32 1   
    11     3    44 1   
    12     4    22 2   
    13     4    45 1   
    14     5     6 1   
    15     5    41 1   
    16     5    81 1   
    17     6     7 1   
    18     6    49 1   
    19     6    80 1   
    20     7     8 1   
    21     7    50 1   
    22     7    51 1   
    23     8     9 1   
    24     8    40 1   
    25     9    10 2   
    26     9    11 1   
    27    11    12 1   
    28    11    52 1   
    29    12    19 1   
    30    12    53 1   
    31    13    14 1   
    32    13    54 1   
    33    13    55 1   
    34    14    15 1   
    35    14    56 1   
    36    14    57 1   
    37    15    16 1   
    38    16    58 1   
    39    17    59 1   
    40    17    60 1   
    41    18    61 1   
    42    19    20 2   
    43    19    21 1   
    44    21    62 1   
    45    22    23 1   
    46    22    63 1   
    47    23    24 2   
    48    23    25 2   
    49    23    26 1   
    50    26    27 ar  
    51    26    31 ar  
    52    27    28 ar  
    53    28    29 ar  
    54    28    64 1   
    55    29    30 ar  
    56    29    65 1   
    57    30    31 ar  
    58    30    66 1   
    59    32    33 1   
    60    32    67 1   
    61    32    68 1   
    62    33    34 1   
    63    33    69 1   
    64    33    70 1   
    65    34    35 ar  
    66    34    39 ar  
    67    35    36 ar  
    68    35    71 1   
    69    36    37 ar  
    70    36    72 1   
    71    37    38 ar  
    72    37    73 1   
    73    38    39 ar  
    74    38    74 1   
    75    39    75 1   
    76    40    41 1   
    77    40    76 1   
    78    40    77 1   
    79    41    78 1   
    80    41    79 1   
    81    46    81 1   
    82    47    81 1   
    83    48    81 1   
@<TRIPOS>SUBSTRUCTURE
     1 2VC         1 TEMP              0 ****  ****    0 ROOT
