@<TRIPOS>MOLECULE
2VD
   53    56     1     0     0
SMALL
bcc


@<TRIPOS>ATOM
      1 CAM          3.2700    -2.7560    -0.2570 c6         1 2VD       0.003800
      2 CAL          2.5540    -3.9870     0.2980 c6         1 2VD      -0.061400
      3 CAK          1.0440    -3.9470     0.0330 c6         1 2VD      -0.183700
      4 CBD          0.3840    -5.2990     0.3800 c          1 2VD       0.938600
      5 OBF          0.8420    -6.2970    -0.2160 o          1 2VD      -0.846300
      6 OBE         -0.5430    -5.3040     1.2130 o          1 2VD      -0.846300
      7 CAJ          0.3920    -2.7590     0.7400 c6         1 2VD      -0.026200
      8 CAH          1.2310    -1.5430     0.5610 cc         1 2VD       0.017700
      9 CAI          2.5200    -1.5200     0.1120 cd         1 2VD      -0.170400
     10 CAE          2.9240    -0.1510     0.0940 ca         1 2VD      -0.070800
     11 CAF          4.1080     0.4990    -0.2630 ca         1 2VD      -0.066000
     12 CAA          4.1470     1.8750    -0.1580 ca         1 2VD      -0.047900
     13 BR           5.7380     2.7910    -0.6370 br         1 2VD      -0.181100
     14 CAB          3.0530     2.6270     0.2860 ca         1 2VD      -0.131000
     15 CAC          1.8760     1.9940     0.6440 ca         1 2VD      -0.128000
     16 CAD          1.8210     0.6080     0.5500 ca         1 2VD      -0.030200
     17 NAG          0.8130    -0.2650     0.8540 na         1 2VD      -0.037400
     18 CAO         -0.5240     0.0950     1.2160 c3         1 2VD      -0.044700
     19 CAP         -1.4360     0.1390    -0.0070 c          1 2VD       0.653100
     20 OAQ         -0.9920     0.4310    -1.1070 o          1 2VD      -0.600100
     21 N           -2.7230    -0.1070     0.2500 ns         1 2VD      -0.521900
     22 CA          -3.7180    -0.2380    -0.7840 c3         1 2VD      -0.044300
     23 C           -3.7430    -1.6600    -1.4150 c          1 2VD       0.918600
     24 OXT         -4.6070    -1.8220    -2.2990 o          1 2VD      -0.808800
     25 O           -2.9150    -2.4890    -1.0060 o          1 2VD      -0.808800
     26 CB          -5.0950     0.1600    -0.2420 c3         1 2VD      -0.041100
     27 CG          -5.1420     1.5850     0.2330 ca         1 2VD      -0.037300
     28 CD1         -5.2770     2.6270    -0.6830 ca         1 2VD      -0.130000
     29 CE1         -5.2930     3.9500    -0.2640 ca         1 2VD      -0.138000
     30 CZ          -5.1730     4.2550     1.0870 ca         1 2VD      -0.160000
     31 CE2         -5.0410     3.2260     2.0100 ca         1 2VD      -0.138000
     32 CD2         -5.0250     1.9040     1.5830 ca         1 2VD      -0.130000
     33 H1           4.2970    -2.7140     0.1190 hc         1 2VD       0.020700
     34 H2           3.3540    -2.8400    -1.3470 hc         1 2VD       0.020700
     35 H3           2.9750    -4.8890    -0.1470 hc         1 2VD       0.035200
     36 H4           2.7280    -4.0550     1.3780 hc         1 2VD       0.035200
     37 H5           0.9160    -3.8030    -1.0490 hc         1 2VD       0.052700
     38 H7          -0.6180    -2.6040     0.3470 hc         1 2VD       0.082700
     39 H8           0.2710    -2.9730     1.8070 hc         1 2VD       0.082700
     40 H9           4.9630    -0.0660    -0.6130 ha         1 2VD       0.135000
     41 H10          3.1160     3.7050     0.3500 ha         1 2VD       0.120000
     42 H11          1.0300     2.5800     0.9800 ha         1 2VD       0.126000
     43 H12         -0.9020    -0.5900     1.9780 h1         1 2VD       0.059200
     44 H13         -0.5150     1.0840     1.6790 h1         1 2VD       0.059200
     45 H14         -2.9570    -0.4760     1.1590 hn         1 2VD       0.293500
     46 H15         -3.4550     0.4630    -1.5810 h1         1 2VD       0.063700
     47 H17         -5.8200     0.0080    -1.0400 hc         1 2VD       0.059200
     48 H18         -5.3780    -0.5160     0.5720 hc         1 2VD       0.059200
     49 H19         -5.3760     2.4010    -1.7390 ha         1 2VD       0.130500
     50 H20         -5.4020     4.7440    -0.9910 ha         1 2VD       0.111000
     51 H21         -5.1880     5.2860     1.4160 ha         1 2VD       0.107000
     52 H22         -4.9530     3.4500     3.0650 ha         1 2VD       0.111000
     53 H23         -4.9300     1.1090     2.3130 ha         1 2VD       0.130500
@<TRIPOS>BOND
     1     1     2 1   
     2     1     9 1   
     3     1    33 1   
     4     1    34 1   
     5     2     3 1   
     6     2    35 1   
     7     2    36 1   
     8     3     4 1   
     9     3     7 1   
    10     3    37 1   
    11     4     5 1   
    12     4     6 1   
    13     7     8 1   
    14     7    38 1   
    15     7    39 1   
    16     8     9 2   
    17     8    17 1   
    18     9    10 1   
    19    10    11 ar  
    20    10    16 ar  
    21    11    12 ar  
    22    11    40 1   
    23    12    13 1   
    24    12    14 ar  
    25    14    15 ar  
    26    14    41 1   
    27    15    16 ar  
    28    15    42 1   
    29    16    17 1   
    30    17    18 1   
    31    18    19 1   
    32    18    43 1   
    33    18    44 1   
    34    19    20 2   
    35    19    21 1   
    36    21    22 1   
    37    21    45 1   
    38    22    23 1   
    39    22    26 1   
    40    22    46 1   
    41    23    24 1   
    42    23    25 1   
    43    26    27 1   
    44    26    47 1   
    45    26    48 1   
    46    27    28 ar  
    47    27    32 ar  
    48    28    29 ar  
    49    28    49 1   
    50    29    30 ar  
    51    29    50 1   
    52    30    31 ar  
    53    30    51 1   
    54    31    32 ar  
    55    31    52 1   
    56    32    53 1   
@<TRIPOS>SUBSTRUCTURE
     1 2VD         1 TEMP              0 ****  ****    0 ROOT
