@<TRIPOS>MOLECULE
2VD
   53    56     1     0     0
SMALL
No Charge or Current Charge


@<TRIPOS>ATOM
      1 CAM          2.6400    -2.9020     0.1210 c6         1 2VD       0.003800
      2 CAL          1.9940    -3.8330     1.1820 c6         1 2VD      -0.061400
      3 CAK          0.4450    -3.6760     1.2190 c6         1 2VD      -0.183700
      4 CBD         -0.2360    -4.7310     2.1210 c          1 2VD       0.728000
      5 OBF         -1.0090    -5.5200     1.5980 o          1 2VD      -0.741000
      6 OBE          0.0230    -4.7300     3.3160 o          1 2VD      -0.741000
      7 CAJ          0.0430    -2.2220     1.6110 c6         1 2VD      -0.026200
      8 CAH          0.8950    -1.2210     0.8680 cc         1 2VD       0.017700
      9 CAI          2.0800    -1.4970     0.1980 cd         1 2VD      -0.170400
     10 CAE          2.6060    -0.2780    -0.3680 ca         1 2VD      -0.070800
     11 CAF          3.7580    -0.0340    -1.1270 ca         1 2VD      -0.048000
     12 CAA          3.9990     1.2940    -1.5370 ca         1 2VD      -0.047900
     13 Br           5.5520     1.6980    -2.5750 br         1 2VD      -0.181100
     14 CAB          3.1000     2.3300    -1.1870 ca         1 2VD      -0.113000
     15 CAC          1.9480     2.0490    -0.4210 ca         1 2VD      -0.110000
     16 CAD          1.7300     0.7190    -0.0250 ca         1 2VD      -0.030200
     17 NAG          0.6960     0.1650     0.7200 na         1 2VD      -0.066700
     18 CAO         -0.4290     0.9720     1.2280 c3         1 2VD      -0.015400
     19 CAP         -1.3980     1.4200     0.1260 c          1 2VD       0.586100
     20 OAQ         -1.6930     2.5960    -0.0490 o          1 2VD      -0.600100
     21 N           -1.9050     0.4000    -0.6560 ns         1 2VD      -0.454900
     22 CA          -2.9440     0.5570    -1.7030 c3         1 2VD      -0.044300
     23 C           -2.5850    -0.2850    -2.9640 c          1 2VD       0.708000
     24 OXT         -2.4860     0.2960    -4.0350 o          1 2VD      -0.703500
     25 O           -2.3530    -1.4790    -2.8220 o          1 2VD      -0.703500
     26 CB          -4.3530     0.1990    -1.1650 c3         1 2VD      -0.041100
     27 CG          -4.7370     0.9830     0.0860 ca         1 2VD      -0.037300
     28 CD1         -5.2300     2.2970    -0.0250 ca         1 2VD      -0.112000
     29 CE1         -5.5770     3.0240     1.1280 ca         1 2VD      -0.120000
     30 CZ          -5.4320     2.4410     2.3970 ca         1 2VD      -0.142000
     31 CE2         -4.9400     1.1300     2.5150 ca         1 2VD      -0.120000
     32 CD2         -4.5940     0.4030     1.3620 ca         1 2VD      -0.112000
     33 H1           3.7300    -2.8920     0.2560 hc         1 2VD       0.020700
     34 H2           2.4580    -3.3130    -0.8810 hc         1 2VD       0.020700
     35 H3           2.2620    -4.8760     0.9640 hc         1 2VD       0.035200
     36 H4           2.4120    -3.6050     2.1720 hc         1 2VD       0.035200
     37 H5           0.0760    -3.8540     0.1990 hc         1 2VD       0.052700
     38 H7          -1.0240    -2.0650     1.4080 hc         1 2VD       0.082700
     39 H8           0.1740    -2.0770     2.6930 hc         1 2VD       0.082700
     40 H9           4.4400    -0.8390    -1.3880 ha         1 2VD       0.117000
     41 H10          3.2970     3.3500    -1.5090 ha         1 2VD       0.102000
     42 H11          1.2570     2.8430    -0.1500 ha         1 2VD       0.108000
     43 H12         -0.9980     0.3820     1.9560 h1         1 2VD       0.059200
     44 H13         -0.0370     1.8610     1.7350 h1         1 2VD       0.059200
     45 H14         -1.5560    -0.5320    -0.4710 hn         1 2VD       0.293500
     46 H15         -2.9590     1.6070    -2.0200 h1         1 2VD       0.063700
     47 H17         -5.0890     0.3790    -1.9580 hc         1 2VD       0.059200
     48 H18         -4.3930    -0.8770    -0.9570 hc         1 2VD       0.059200
     49 H19         -5.3410     2.7570    -1.0040 ha         1 2VD       0.112500
     50 H20         -5.9570     4.0390     1.0360 ha         1 2VD       0.093000
     51 H21         -5.6990     3.0030     3.2890 ha         1 2VD       0.089000
     52 H22         -4.8250     0.6780     3.4970 ha         1 2VD       0.093000
     53 H23         -4.2110    -0.6100     1.4620 ha         1 2VD       0.112500
@<TRIPOS>BOND
     1     1     2 1   
     2     1     9 1   
     3     1    33 1   
     4     1    34 1   
     5     2     3 1   
     6     2    35 1   
     7     2    36 1   
     8     3     4 1   
     9     3     7 1   
    10     3    37 1   
    11     4     5 1   
    12     4     6 1   
    13     7     8 1   
    14     7    38 1   
    15     7    39 1   
    16     8     9 2   
    17     8    17 1   
    18     9    10 1   
    19    10    11 ar  
    20    10    16 ar  
    21    11    12 ar  
    22    11    40 1   
    23    12    13 1   
    24    12    14 ar  
    25    14    15 ar  
    26    14    41 1   
    27    15    16 ar  
    28    15    42 1   
    29    16    17 1   
    30    17    18 1   
    31    18    19 1   
    32    18    43 1   
    33    18    44 1   
    34    19    20 2   
    35    19    21 1   
    36    21    22 1   
    37    21    45 1   
    38    22    23 1   
    39    22    26 1   
    40    22    46 1   
    41    23    24 1   
    42    23    25 1   
    43    26    27 1   
    44    26    47 1   
    45    26    48 1   
    46    27    28 ar  
    47    27    32 ar  
    48    28    29 ar  
    49    28    49 1   
    50    29    30 ar  
    51    29    50 1   
    52    30    31 ar  
    53    30    51 1   
    54    31    32 ar  
    55    31    52 1   
    56    32    53 1   
@<TRIPOS>SUBSTRUCTURE
     1 2VD         1 TEMP              0 ****  ****    0 ROOT
