@<TRIPOS>MOLECULE
2VE
   40    42     1     0     0
SMALL
abcg2


@<TRIPOS>ATOM
      1 OAX          4.3790    -4.3590     1.1080 o          1 2VE      -0.736000
      2 CAW          4.6270    -4.1740    -0.0990 c          1 2VE       0.713000
      3 OAY          5.3220    -4.8800    -0.8490 o          1 2VE      -0.736000
      4 CAV          4.0020    -2.9280    -0.7600 c3         1 2VE      -0.053000
      5 NAU          3.2320    -2.1750     0.1970 ns         1 2VE      -0.471900
      6 C            2.5460    -1.0710    -0.0900 c          1 2VE       0.568100
      7 O            2.4650    -0.5780    -1.2060 o          1 2VE      -0.618100
      8 CA           1.8720    -0.4140     1.1110 c3         1 2VE      -0.021400
      9 N            0.6430     0.2260     0.7470 na         1 2VE      -0.063700
     10 CAH          0.4850     1.5460     0.3920 cc         1 2VE       0.008700
     11 CAJ          1.5710     2.5620     0.4340 c6         1 2VE      -0.011200
     12 CAK          1.1260     3.8330    -0.2940 c6         1 2VE      -0.187700
     13 CAO          2.0980     5.0160    -0.0850 c          1 2VE       0.721000
     14 OAQ          3.1850     4.7800     0.4790 o          1 2VE      -0.740500
     15 OAP          1.7230     6.1230    -0.5230 o          1 2VE      -0.740500
     16 CAL         -0.3160     4.2010     0.0640 c6         1 2VE      -0.058400
     17 CAM         -1.3110     3.1250    -0.3700 c6         1 2VE       0.002800
     18 CAI         -0.8100     1.7770     0.0270 cd         1 2VE      -0.167400
     19 CAB         -1.4960     0.5300     0.1320 ca         1 2VE      -0.076800
     20 CAA         -0.5480    -0.4220     0.5750 ca         1 2VE      -0.038200
     21 CAF         -0.8860    -1.7560     0.7730 ca         1 2VE      -0.110000
     22 CAE         -2.1950    -2.1390     0.5350 ca         1 2VE      -0.105000
     23 CAD         -3.1360    -1.1940     0.1070 ca         1 2VE      -0.047900
     24 BR          -4.9180    -1.7690    -0.2000 br         1 2VE      -0.175100
     25 CAC         -2.8150     0.1330    -0.1000 ca         1 2VE      -0.049000
     26 H2           4.7990    -2.3140    -1.1900 h1         1 2VE       0.036200
     27 H3           3.3730    -3.2490    -1.5960 h1         1 2VE       0.036200
     28 H4           3.2380    -2.5560     1.1330 hn         1 2VE       0.335500
     29 H5           1.6900    -1.1340     1.9120 h1         1 2VE       0.070200
     30 H6           2.5540     0.3310     1.5240 h1         1 2VE       0.070200
     31 H7           1.8310     2.7890     1.4730 hc         1 2VE       0.066200
     32 H8           2.4800     2.1690    -0.0270 hc         1 2VE       0.066200
     33 H9           1.1410     3.6150    -1.3720 hc         1 2VE       0.041700
     34 H11         -0.3930     4.3480     1.1480 hc         1 2VE       0.039200
     35 H12         -0.5750     5.1510    -0.4020 hc         1 2VE       0.039200
     36 H13         -2.2910     3.3210     0.0740 hc         1 2VE       0.022700
     37 H14         -1.4600     3.1760    -1.4550 hc         1 2VE       0.022700
     38 H15         -0.1620    -2.4910     1.1010 ha         1 2VE       0.122000
     39 H16         -2.4810    -3.1720     0.6840 ha         1 2VE       0.110000
     40 H17         -3.5560     0.8500    -0.4320 ha         1 2VE       0.116000
@<TRIPOS>BOND
     1     1     2 1   
     2     2     3 1   
     3     2     4 1   
     4     4     5 1   
     5     4    26 1   
     6     4    27 1   
     7     5     6 1   
     8     5    28 1   
     9     6     7 2   
    10     6     8 1   
    11     8     9 1   
    12     8    29 1   
    13     8    30 1   
    14     9    10 1   
    15     9    20 1   
    16    10    11 1   
    17    10    18 2   
    18    11    12 1   
    19    11    31 1   
    20    11    32 1   
    21    12    13 1   
    22    12    16 1   
    23    12    33 1   
    24    13    14 1   
    25    13    15 1   
    26    16    17 1   
    27    16    34 1   
    28    16    35 1   
    29    17    18 1   
    30    17    36 1   
    31    17    37 1   
    32    18    19 1   
    33    19    20 ar  
    34    19    25 ar  
    35    20    21 ar  
    36    21    22 ar  
    37    21    38 1   
    38    22    23 ar  
    39    22    39 1   
    40    23    24 1   
    41    23    25 ar  
    42    25    40 1   
@<TRIPOS>SUBSTRUCTURE
     1 2VE         1 TEMP              0 ****  ****    0 ROOT
