@<TRIPOS>MOLECULE
2VE
   40    42     1     0     0
SMALL
No Charge or Current Charge


@<TRIPOS>ATOM
      1 OAX          3.8540    -4.9670     0.9150 o          1 2VE      -0.736000
      2 CAW          4.4040    -4.5580    -0.0990 c          1 2VE       0.713000
      3 OAY          5.4080    -5.0710    -0.5720 o          1 2VE      -0.736000
      4 CAV          3.8370    -3.2850    -0.7930 c3         1 2VE      -0.053000
      5 NAU          3.1830    -2.3630     0.1650 ns         1 2VE      -0.471900
      6 C            2.7290    -1.0970    -0.1430 c          1 2VE       0.568100
      7 O            2.8580    -0.6200    -1.2630 o          1 2VE      -0.618100
      8 CA           2.0650    -0.3430     1.0190 c3         1 2VE      -0.021400
      9 N            0.8010     0.3160     0.6420 na         1 2VE      -0.063700
     10 CAH          0.5900     1.6830     0.3760 cc         1 2VE       0.008700
     11 CAJ          1.5910     2.8130     0.4060 c6         1 2VE      -0.011200
     12 CAK          1.0050     4.0760    -0.2910 c6         1 2VE      -0.187700
     13 CAO          1.9000     5.3200    -0.0840 c          1 2VE       0.721000
     14 OAQ          2.0600     5.7400     1.0530 o          1 2VE      -0.740500
     15 OAP          2.4070     5.8320    -1.0710 o          1 2VE      -0.740500
     16 CAL         -0.4690     4.3200     0.1500 c6         1 2VE      -0.058400
     17 CAM         -1.3910     3.1370    -0.2490 c6         1 2VE       0.002800
     18 CAI         -0.7660     1.8020     0.0980 cd         1 2VE      -0.167400
     19 CAB         -1.3870     0.5010     0.1810 ca         1 2VE      -0.076800
     20 CAA         -0.3940    -0.3830     0.5150 ca         1 2VE      -0.038200
     21 CAF         -0.6610    -1.7540     0.6720 ca         1 2VE      -0.110000
     22 CAE         -1.9890    -2.1950     0.4770 ca         1 2VE      -0.105000
     23 CAD         -3.0070    -1.2730     0.1340 ca         1 2VE      -0.047900
     24 Br          -4.7970    -1.8930    -0.1250 br         1 2VE      -0.175100
     25 CAC         -2.7130     0.0980    -0.0190 ca         1 2VE      -0.049000
     26 H2           4.6600    -2.7590    -1.2930 h1         1 2VE       0.036200
     27 H3           3.1060    -3.5990    -1.5470 h1         1 2VE       0.036200
     28 H4           3.0410    -2.6910     1.1150 hn         1 2VE       0.335500
     29 H5           1.8690    -1.0440     1.8390 h1         1 2VE       0.070200
     30 H6           2.7780     0.4050     1.3850 h1         1 2VE       0.070200
     31 H7           1.8480     3.0450     1.4480 hc         1 2VE       0.066200
     32 H8           2.5290     2.5200    -0.0860 hc         1 2VE       0.066200
     33 H9           0.9910     3.8760    -1.3720 hc         1 2VE       0.041700
     34 H11         -0.5100     4.4640     1.2390 hc         1 2VE       0.039200
     35 H12         -0.8500     5.2470    -0.3000 hc         1 2VE       0.039200
     36 H13         -2.3660     3.2470     0.2460 hc         1 2VE       0.022700
     37 H14         -1.5880     3.1780    -1.3290 hc         1 2VE       0.022700
     38 H15          0.1220    -2.4600     0.9340 ha         1 2VE       0.122000
     39 H16         -2.2280    -3.2500     0.5920 ha         1 2VE       0.110000
     40 H17         -3.4850     0.8150    -0.2850 ha         1 2VE       0.116000
@<TRIPOS>BOND
     1     1     2 1   
     2     2     3 1   
     3     2     4 1   
     4     4     5 1   
     5     4    26 1   
     6     4    27 1   
     7     5     6 1   
     8     5    28 1   
     9     6     7 2   
    10     6     8 1   
    11     8     9 1   
    12     8    29 1   
    13     8    30 1   
    14     9    10 1   
    15     9    20 1   
    16    10    11 1   
    17    10    18 2   
    18    11    12 1   
    19    11    31 1   
    20    11    32 1   
    21    12    13 1   
    22    12    16 1   
    23    12    33 1   
    24    13    14 1   
    25    13    15 1   
    26    16    17 1   
    27    16    34 1   
    28    16    35 1   
    29    17    18 1   
    30    17    36 1   
    31    17    37 1   
    32    18    19 1   
    33    19    20 ar  
    34    19    25 ar  
    35    20    21 ar  
    36    21    22 ar  
    37    21    38 1   
    38    22    23 ar  
    39    22    39 1   
    40    23    24 1   
    41    23    25 ar  
    42    25    40 1   
@<TRIPOS>SUBSTRUCTURE
     1 2VE         1 TEMP              0 ****  ****    0 ROOT
