@<TRIPOS>MOLECULE
2VF
   35    37     1     0     0
SMALL
abcg2


@<TRIPOS>ATOM
      1 O2          -0.3540     2.7130    -1.5650 o          1 2VF      -0.566100
      2 C13         -0.5010     3.2450    -0.4790 c          1 2VF       0.580100
      3 N1          -0.8150     4.5340    -0.3060 nt         1 2VF      -0.618000
      4 C12         -0.3440     2.4640     0.8250 c3         1 2VF      -0.008400
      5 N            0.0440     1.1080     0.5970 na         1 2VF      -0.076700
      6 C3           1.3290     0.6730     0.4210 ca         1 2VF      -0.045200
      7 C2           2.5360     1.3530     0.5400 ca         1 2VF      -0.118000
      8 C1           3.7060     0.6460     0.3260 ca         1 2VF      -0.112000
      9 C11         -0.8140     0.0640     0.3400 cc         1 2VF      -0.008300
     10 C10         -2.2970     0.1620     0.4070 c6         1 2VF      -0.009200
     11 C8          -2.9300    -1.0690    -0.2440 c6         1 2VF      -0.188700
     12 C9          -4.4550    -1.1540    -0.0120 c          1 2VF       0.721000
     13 O1          -5.0110    -0.1930     0.5560 o          1 2VF      -0.735000
     14 O           -5.0190    -2.1830    -0.4370 o          1 2VF      -0.735000
     15 C7          -2.2130    -2.3500     0.1910 c6         1 2VF      -0.059400
     16 C6          -0.7500    -2.3740    -0.2510 c6         1 2VF      -0.003200
     17 C5          -0.1020    -1.0620     0.0420 cd         1 2VF      -0.145400
     18 C4           1.2770    -0.6990     0.0840 ca         1 2VF      -0.063800
     19 C14          2.4660    -1.4020    -0.1250 ca         1 2VF      -0.059000
     20 C            3.6550    -0.7140     0.0000 ca         1 2VF       0.088000
     21 CL           5.1550    -1.5620    -0.2560 cl         1 2VF      -0.250000
     22 H1          -0.9690     5.1330    -1.1010 hn         1 2VF       0.309000
     23 H2          -0.9410     4.9360     0.6070 hn         1 2VF       0.309000
     24 H3           0.3880     2.9560     1.4690 h1         1 2VF       0.071700
     25 H4          -1.2860     2.4880     1.3760 h1         1 2VF       0.071700
     26 H5           2.5820     2.4060     0.7880 ha         1 2VF       0.104000
     27 H6           4.6610     1.1470     0.4130 ha         1 2VF       0.111000
     28 H7          -2.6190     0.2490     1.4500 hc         1 2VF       0.058200
     29 H8          -2.6470     1.0710    -0.0910 hc         1 2VF       0.058200
     30 H9          -2.7890    -0.9760    -1.3300 hc         1 2VF       0.040700
     31 H11         -2.2640    -2.4380     1.2820 hc         1 2VF       0.045700
     32 H12         -2.7350    -3.2140    -0.2190 hc         1 2VF       0.045700
     33 H13         -0.2220    -3.1890     0.2530 hc         1 2VF       0.030700
     34 H14         -0.6900    -2.5970    -1.3230 hc         1 2VF       0.030700
     35 H15          2.4550    -2.4550    -0.3790 ha         1 2VF       0.126000
@<TRIPOS>BOND
     1     1     2 2   
     2     2     3 1   
     3     2     4 1   
     4     3    22 1   
     5     3    23 1   
     6     4     5 1   
     7     4    24 1   
     8     4    25 1   
     9     5     6 1   
    10     5     9 1   
    11     6     7 ar  
    12     6    18 ar  
    13     7     8 ar  
    14     7    26 1   
    15     8    20 ar  
    16     8    27 1   
    17     9    10 1   
    18     9    17 2   
    19    10    11 1   
    20    10    28 1   
    21    10    29 1   
    22    11    12 1   
    23    11    15 1   
    24    11    30 1   
    25    12    13 1   
    26    12    14 1   
    27    15    16 1   
    28    15    31 1   
    29    15    32 1   
    30    16    17 1   
    31    16    33 1   
    32    16    34 1   
    33    17    18 1   
    34    18    19 ar  
    35    19    20 ar  
    36    19    35 1   
    37    20    21 1   
@<TRIPOS>SUBSTRUCTURE
     1 2VF         1 TEMP              0 ****  ****    0 ROOT
