@<TRIPOS>MOLECULE
2VF
   35    37     1     0     0
SMALL
No Charge or Current Charge


@<TRIPOS>ATOM
      1 O2          -0.4200     3.0530    -1.6630 o          1 2VF      -0.566100
      2 C13         -0.3990     3.4610    -0.5130 c          1 2VF       0.580100
      3 N1          -0.3830     4.7920    -0.2700 nt         1 2VF      -0.618000
      4 C12         -0.3970     2.5570     0.7300 c3         1 2VF      -0.008400
      5 N           -0.0540     1.1470     0.4550 na         1 2VF      -0.076700
      6 C3           1.2600     0.7070     0.3450 ca         1 2VF      -0.045200
      7 C2           2.4640     1.4270     0.4240 ca         1 2VF      -0.118000
      8 C1           3.6720     0.7110     0.2700 ca         1 2VF      -0.112000
      9 C11         -0.9390     0.0660     0.2900 cc         1 2VF      -0.008300
     10 C10         -2.4480     0.0690     0.3420 c6         1 2VF      -0.009200
     11 C8          -3.0140    -1.2580    -0.2450 c6         1 2VF      -0.188700
     12 C9          -4.5350    -1.3950    -0.0080 c          1 2VF       0.721000
     13 O1          -4.9410    -1.4670     1.1430 o          1 2VF      -0.735000
     14 O           -5.2670    -1.4290    -0.9860 o          1 2VF      -0.735000
     15 C7          -2.2140    -2.4850     0.2860 c6         1 2VF      -0.059400
     16 C6          -0.7210    -2.4240    -0.1380 c6         1 2VF      -0.003200
     17 C5          -0.1330    -1.0470     0.0900 cd         1 2VF      -0.145400
     18 C4           1.2530    -0.6450     0.1210 ca         1 2VF      -0.063800
     19 C14          2.4320    -1.3840    -0.0370 ca         1 2VF      -0.059000
     20 C            3.6550    -0.6860     0.0420 ca         1 2VF       0.088000
     21 Cl           5.1720    -1.5570    -0.1480 cl         1 2VF      -0.250000
     22 H1          -0.3850     5.4350    -1.0490 hn         1 2VF       0.309000
     23 H2          -0.3700     5.1380     0.6790 hn         1 2VF       0.309000
     24 H3           0.3170     2.9660     1.4540 h1         1 2VF       0.071700
     25 H4          -1.3930     2.6080     1.1830 h1         1 2VF       0.071700
     26 H5           2.4760     2.5000     0.5970 ha         1 2VF       0.104000
     27 H6           4.6220     1.2360     0.3260 ha         1 2VF       0.111000
     28 H7          -2.7770     0.1880     1.3830 hc         1 2VF       0.058200
     29 H8          -2.8590     0.9240    -0.2130 hc         1 2VF       0.058200
     30 H9          -2.8680    -1.2210    -1.3340 hc         1 2VF       0.040700
     31 H11         -2.2810    -2.5240     1.3820 hc         1 2VF       0.045700
     32 H12         -2.6610    -3.4180    -0.0850 hc         1 2VF       0.045700
     33 H13         -0.1510    -3.1840     0.4120 hc         1 2VF       0.030700
     34 H14         -0.6350    -2.6860    -1.2020 hc         1 2VF       0.030700
     35 H15          2.4070    -2.4560    -0.2150 ha         1 2VF       0.126000
@<TRIPOS>BOND
     1     1     2 2   
     2     2     3 1   
     3     2     4 1   
     4     3    22 1   
     5     3    23 1   
     6     4     5 1   
     7     4    24 1   
     8     4    25 1   
     9     5     6 1   
    10     5     9 1   
    11     6     7 ar  
    12     6    18 ar  
    13     7     8 ar  
    14     7    26 1   
    15     8    20 ar  
    16     8    27 1   
    17     9    10 1   
    18     9    17 2   
    19    10    11 1   
    20    10    28 1   
    21    10    29 1   
    22    11    12 1   
    23    11    15 1   
    24    11    30 1   
    25    12    13 1   
    26    12    14 1   
    27    15    16 1   
    28    15    31 1   
    29    15    32 1   
    30    16    17 1   
    31    16    33 1   
    32    16    34 1   
    33    17    18 1   
    34    18    19 ar  
    35    19    20 ar  
    36    19    35 1   
    37    20    21 1   
@<TRIPOS>SUBSTRUCTURE
     1 2VF         1 TEMP              0 ****  ****    0 ROOT
