@<TRIPOS>MOLECULE
2VG
   28    30     1     0     0
SMALL
bcc


@<TRIPOS>ATOM
      1 CL          -5.0280    -1.0580     0.0530 cl         1 2VG      -0.158400
      2 C4          -3.5580    -0.1220     0.0020 ca         1 2VG      -0.006600
      3 C3          -2.3450    -0.7790     0.0090 ca         1 2VG      -0.075000
      4 C2          -1.1810    -0.0050    -0.0320 ca         1 2VG      -0.074800
      5 C5          -3.6610     1.2740    -0.0440 ca         1 2VG      -0.129000
      6 C6          -2.5180     2.0520    -0.0850 ca         1 2VG      -0.140000
      7 C1          -1.2860     1.4060    -0.0800 ca         1 2VG      -0.060200
      8 N           -0.0180     1.9070    -0.1130 na         1 2VG      -0.172400
      9 C7           0.8810     0.8740    -0.0890 cc         1 2VG      -0.024300
     10 C8           0.2120    -0.3180    -0.0420 cd         1 2VG      -0.151400
     11 C12          0.9120    -1.6350    -0.0010 c6         1 2VG      -0.003200
     12 C11          2.3810    -1.4630    -0.3930 c6         1 2VG      -0.059400
     13 C9           2.3590     1.0410    -0.1180 c6         1 2VG      -0.007200
     14 C10          3.0330    -0.2660     0.3040 c6         1 2VG      -0.188700
     15 C13          4.5670    -0.2350     0.1180 c          1 2VG       0.931600
     16 O1           5.1610    -1.3290     0.2020 o          1 2VG      -0.838300
     17 O2           5.1010     0.8770    -0.0690 o          1 2VG      -0.838300
     18 H1          -2.2960    -1.8600     0.0440 ha         1 2VG       0.144000
     19 H2          -4.6350     1.7440    -0.0470 ha         1 2VG       0.130000
     20 H3          -2.5920     3.1310    -0.1200 ha         1 2VG       0.124000
     21 H4           0.2220     2.8840    -0.1520 hn         1 2VG       0.293700
     22 H5           0.8480    -2.0680     1.0040 hc         1 2VG       0.029200
     23 H6           0.4280    -2.3550    -0.6670 hc         1 2VG       0.029200
     24 H7           2.9340    -2.3700    -0.1510 hc         1 2VG       0.047200
     25 H8           2.4530    -1.3290    -1.4780 hc         1 2VG       0.047200
     26 H9           2.6800     1.3240    -1.1270 hc         1 2VG       0.058700
     27 H10          2.6630     1.8610     0.5350 hc         1 2VG       0.058700
     28 H11          2.8620    -0.3900     1.3840 hc         1 2VG       0.033700
@<TRIPOS>BOND
     1     1     2 1   
     2     2     3 ar  
     3     2     5 ar  
     4     3     4 ar  
     5     3    18 1   
     6     4     7 ar  
     7     4    10 1   
     8     5     6 ar  
     9     5    19 1   
    10     6     7 ar  
    11     6    20 1   
    12     7     8 1   
    13     8     9 1   
    14     8    21 1   
    15     9    10 2   
    16     9    13 1   
    17    10    11 1   
    18    11    12 1   
    19    11    22 1   
    20    11    23 1   
    21    12    14 1   
    22    12    24 1   
    23    12    25 1   
    24    13    14 1   
    25    13    26 1   
    26    13    27 1   
    27    14    15 1   
    28    14    28 1   
    29    15    16 1   
    30    15    17 1   
@<TRIPOS>SUBSTRUCTURE
     1 2VG         1 TEMP              0 ****  ****    0 ROOT
