@<TRIPOS>MOLECULE
2VG
   28    30     1     0     0
SMALL
No Charge or Current Charge


@<TRIPOS>ATOM
      1 Cl          -5.0670    -1.1370    -0.1390 cl         1 2VG      -0.250000
      2 C4          -3.6090    -0.1550    -0.0800 ca         1 2VG       0.085000
      3 C3          -2.3430    -0.7780    -0.1080 ca         1 2VG      -0.057000
      4 C2          -1.2150     0.0500    -0.0590 ca         1 2VG      -0.074800
      5 C5          -3.7160     1.2560    -0.0060 ca         1 2VG      -0.111000
      6 C6          -2.5550     2.0600     0.0420 ca         1 2VG      -0.122000
      7 C1          -1.3130     1.4130     0.0130 ca         1 2VG      -0.060200
      8 N           -0.0410     1.9610     0.0490 na         1 2VG      -0.222700
      9 C7           0.9180     0.9320     0.0020 cc         1 2VG      -0.024300
     10 C8           0.1960    -0.2520    -0.0680 cd         1 2VG      -0.151400
     11 C12          0.8850    -1.6000    -0.1210 c6         1 2VG      -0.003200
     12 C11          2.3870    -1.4610    -0.4910 c6         1 2VG      -0.059400
     13 C9           2.4210     1.0570     0.0020 c6         1 2VG      -0.007200
     14 C10          3.0770    -0.3200     0.3150 c6         1 2VG      -0.188700
     15 C13          4.6100    -0.2910     0.1090 c          1 2VG       0.721000
     16 O1           5.3230    -0.4800     1.0830 o          1 2VG      -0.733000
     17 O2           5.0420    -0.0880    -1.0170 o          1 2VG      -0.733000
     18 H1          -2.2490    -1.8590    -0.1640 ha         1 2VG       0.126000
     19 H2          -4.6980     1.7220     0.0140 ha         1 2VG       0.112000
     20 H3          -2.6250     3.1440     0.0990 ha         1 2VG       0.106000
     21 H4           0.1660     2.9530     0.0980 hn         1 2VG       0.344000
     22 H5           0.7980    -2.0920     0.8580 hc         1 2VG       0.029200
     23 H6           0.3870    -2.2610    -0.8430 hc         1 2VG       0.029200
     24 H7           2.8990    -2.4160    -0.3090 hc         1 2VG       0.047200
     25 H8           2.4800    -1.2600    -1.5680 hc         1 2VG       0.047200
     26 H9           2.7570     1.4170    -0.9810 hc         1 2VG       0.058700
     27 H10          2.7550     1.8050     0.7350 hc         1 2VG       0.058700
     28 H11          2.9070    -0.5260     1.3820 hc         1 2VG       0.033700
@<TRIPOS>BOND
     1     1     2 1   
     2     2     3 ar  
     3     2     5 ar  
     4     3     4 ar  
     5     3    18 1   
     6     4     7 ar  
     7     4    10 1   
     8     5     6 ar  
     9     5    19 1   
    10     6     7 ar  
    11     6    20 1   
    12     7     8 1   
    13     8     9 1   
    14     8    21 1   
    15     9    10 2   
    16     9    13 1   
    17    10    11 1   
    18    11    12 1   
    19    11    22 1   
    20    11    23 1   
    21    12    14 1   
    22    12    24 1   
    23    12    25 1   
    24    13    14 1   
    25    13    26 1   
    26    13    27 1   
    27    14    15 1   
    28    14    28 1   
    29    15    16 1   
    30    15    17 1   
@<TRIPOS>SUBSTRUCTURE
     1 2VG         1 TEMP              0 ****  ****    0 ROOT
