@<TRIPOS>MOLECULE
2VH
   47    50     1     0     0
SMALL
No Charge or Current Charge


@<TRIPOS>ATOM
      1 F2          -8.4620    -0.5400     0.0150 f          1 2VH      -0.151000
      2 C           -7.1360    -0.2930     0.1260 ca         1 2VH       0.167000
      3 C5          -6.2010    -1.1290    -0.5100 ca         1 2VH       0.116000
      4 F           -6.6160    -2.1910    -1.2380 f          1 2VH      -0.155000
      5 C4          -4.8260    -0.8660    -0.3910 ca         1 2VH      -0.078000
      6 C3          -4.3750     0.2380     0.3680 ca         1 2VH      -0.115300
      7 C2          -5.3260     1.0690     1.0020 ca         1 2VH       0.182000
      8 F1          -4.9280     2.1360     1.7300 f          1 2VH      -0.173000
      9 C1          -6.6990     0.8060     0.8810 ca         1 2VH      -0.176000
     10 C6          -2.8700     0.5170     0.4940 c6         1 2VH       0.178600
     11 C10         -2.2250     0.9990    -0.8500 c6         1 2VH       0.143500
     12 N           -2.8230     2.2610    -1.3650 n8         1 2VH      -1.001200
     13 C9          -0.6930     1.1670    -0.6780 c6         1 2VH      -0.079400
     14 C8          -0.0390    -0.1250    -0.1040 c6         1 2VH       0.155500
     15 C7          -0.8080    -0.5520     1.1900 c6         1 2VH       0.154600
     16 O           -2.2240    -0.6990     0.9300 os         1 2VH      -0.444000
     17 N1           1.4210     0.0700     0.1490 n3         1 2VH      -0.748600
     18 C14          2.2600     0.5420    -1.0230 c5         1 2VH       0.146500
     19 C13          3.6460     0.2270    -0.5350 cc         1 2VH       0.264300
     20 N2           4.8650     0.6110    -0.8370 nd         1 2VH      -0.465800
     21 N3           5.6370    -0.1530     0.0890 na         1 2VH      -0.012400
     22 S            7.3820    -0.0320     0.1620 s6         1 2VH       1.229200
     23 O2           7.8780     0.3380    -1.1740 o          1 2VH      -0.506000
     24 C16          7.6450     1.3880     1.2270 c3         1 2VH      -0.359100
     25 O1           7.8900    -1.2180     0.8710 o          1 2VH      -0.506000
     26 C15          4.8100    -0.9660     0.9110 cd         1 2VH      -0.090000
     27 C12          3.5600    -0.6830     0.4700 cc         1 2VH      -0.207300
     28 C11          2.1550    -1.0920     0.7710 c5         1 2VH       0.259100
     29 H1          -4.1120    -1.5230    -0.8830 ha         1 2VH       0.153000
     30 H2          -7.4220     1.4520     1.3710 ha         1 2VH       0.156000
     31 H3          -2.7000     1.2830     1.2650 h1         1 2VH       0.054700
     32 H4          -2.4000     0.2220    -1.6110 h1         1 2VH       0.069700
     33 H5          -3.8380     2.1330    -1.4590 hn         1 2VH       0.405500
     34 H6          -2.7410     2.9900    -0.6460 hn         1 2VH       0.405500
     35 H8          -0.2500     1.4170    -1.6500 hc         1 2VH       0.061200
     36 H9          -0.4830     2.0110    -0.0070 hc         1 2VH       0.061200
     37 H10         -0.1680    -0.9280    -0.8450 h1         1 2VH       0.034700
     38 H11         -0.4250    -1.5140     1.5570 h1         1 2VH       0.057200
     39 H12         -0.6600     0.1960     1.9820 h1         1 2VH       0.057200
     40 H14          2.0510    -0.0210    -1.9430 h1         1 2VH       0.064700
     41 H15          2.1440     1.6150    -1.2240 h1         1 2VH       0.064700
     42 H16          7.1860     1.1630     2.1950 h1         1 2VH       0.112367
     43 H17          8.7260     1.5320     1.3210 h1         1 2VH       0.112367
     44 H18          7.1660     2.2480     0.7490 h1         1 2VH       0.112367
     45 H19          5.1780    -1.6310     1.6860 h4         1 2VH       0.183000
     46 H20          1.9760    -1.1800     1.8520 h1         1 2VH       0.052200
     47 H21          1.9190    -2.0480     0.2820 h1         1 2VH       0.052200
@<TRIPOS>BOND
     1     1     2 1   
     2     2     3 ar  
     3     2     9 ar  
     4     3     4 1   
     5     3     5 ar  
     6     5     6 ar  
     7     5    29 1   
     8     6     7 ar  
     9     6    10 1   
    10     7     8 1   
    11     7     9 ar  
    12     9    30 1   
    13    10    11 1   
    14    10    16 1   
    15    10    31 1   
    16    11    12 1   
    17    11    13 1   
    18    11    32 1   
    19    12    33 1   
    20    12    34 1   
    21    13    14 1   
    22    13    35 1   
    23    13    36 1   
    24    14    15 1   
    25    14    17 1   
    26    14    37 1   
    27    15    16 1   
    28    15    38 1   
    29    15    39 1   
    30    17    18 1   
    31    17    28 1   
    32    18    19 1   
    33    18    40 1   
    34    18    41 1   
    35    19    20 2   
    36    19    27 1   
    37    20    21 1   
    38    21    22 1   
    39    21    26 1   
    40    22    23 2   
    41    22    24 1   
    42    22    25 2   
    43    24    42 1   
    44    24    43 1   
    45    24    44 1   
    46    26    27 2   
    47    26    45 1   
    48    27    28 1   
    49    28    46 1   
    50    28    47 1   
@<TRIPOS>SUBSTRUCTURE
     1 2VH         1 TEMP              0 ****  ****    0 ROOT
