@<TRIPOS>MOLECULE
2VH
   47    50     1     0     0
SMALL
bcc


@<TRIPOS>ATOM
      1 F2          -8.2140    -0.6780    -0.3850 f          1 2VH      -0.115900
      2 C           -6.9370    -0.3830    -0.1390 ca         1 2VH       0.131900
      3 C5          -5.9470    -1.2760    -0.5150 ca         1 2VH       0.080900
      4 F           -6.2950    -2.4170    -1.1180 f          1 2VH      -0.119900
      5 C4          -4.6230    -0.9930    -0.2710 ca         1 2VH      -0.096000
      6 C3          -4.2540     0.1960     0.3590 ca         1 2VH      -0.115300
      7 C2          -5.2710     1.0640     0.7200 ca         1 2VH       0.146900
      8 F1          -4.9660     2.2180     1.3320 f          1 2VH      -0.137900
      9 C1          -6.6080     0.8000     0.4850 ca         1 2VH      -0.194000
     10 C6          -2.8010     0.5170     0.5750 c6         1 2VH       0.155400
     11 C10         -2.1540     1.0650    -0.7140 c6         1 2VH       0.143500
     12 N           -2.7290     2.3030    -1.1940 n8         1 2VH      -0.890800
     13 C9          -0.6600     1.2460    -0.4790 c6         1 2VH      -0.079400
     14 C8          -0.0190    -0.0400     0.0350 c6         1 2VH       0.155500
     15 C7          -0.7920    -0.4960     1.2720 c6         1 2VH       0.131400
     16 O           -2.1620    -0.6680     0.9920 os         1 2VH      -0.397600
     17 N1           1.3760     0.1610     0.3660 n3         1 2VH      -0.748600
     18 C14          2.1790     0.7450    -0.7200 c5         1 2VH       0.146500
     19 C13          3.5430     0.2880    -0.3480 cc         1 2VH       0.329600
     20 N2           4.7640     0.5880    -0.6980 nd         1 2VH      -0.465800
     21 N3           5.5060    -0.2820     0.0200 na         1 2VH      -0.063100
     22 S            7.1970    -0.1390    -0.0380 s6         1 2VH       1.260000
     23 O2           7.5490     0.1050    -1.4180 o          1 2VH      -0.576800
     24 C16          7.4920     1.3210     0.9170 c3         1 2VH      -0.248300
     25 O1           7.6970    -1.3060     0.6580 o          1 2VH      -0.576800
     26 C15          4.7630    -1.1040     0.8320 cd         1 2VH      -0.057300
     27 C12          3.4730    -0.7480     0.5930 cc         1 2VH      -0.272600
     28 C11          2.0500    -1.0340     0.9100 c5         1 2VH       0.259100
     29 H1          -3.8700    -1.7080    -0.5750 ha         1 2VH       0.171000
     30 H2          -7.3780     1.5010     0.7820 ha         1 2VH       0.174000
     31 H3          -2.6950     1.2880     1.3540 h1         1 2VH       0.054700
     32 H4          -2.2940     0.3110    -1.4990 h1         1 2VH       0.069700
     33 H5          -3.6950     2.1740    -1.4680 hn         1 2VH       0.350300
     34 H6          -2.7230     3.0080    -0.4660 hn         1 2VH       0.350300
     35 H8          -0.1990     1.5710    -1.4130 hc         1 2VH       0.061200
     36 H9          -0.4990     2.0420     0.2600 hc         1 2VH       0.061200
     37 H10         -0.1340    -0.8190    -0.7430 h1         1 2VH       0.034700
     38 H11         -0.4390    -1.4620     1.6370 h1         1 2VH       0.057200
     39 H12         -0.6440     0.2420     2.0750 h1         1 2VH       0.057200
     40 H14          1.9090     0.3500    -1.7120 h1         1 2VH       0.064700
     41 H15          2.0710     1.8300    -0.7560 h1         1 2VH       0.064700
     42 H16          7.1300     1.1630     1.9290 h1         1 2VH       0.112367
     43 H17          8.5680     1.4890     0.9230 h1         1 2VH       0.112367
     44 H18          6.9840     2.1600     0.4500 h1         1 2VH       0.112367
     45 H19          5.2200    -1.8440     1.4690 h4         1 2VH       0.201000
     46 H20          1.8540    -1.1430     1.9780 h1         1 2VH       0.052200
     47 H21          1.7220    -1.9630     0.4190 h1         1 2VH       0.052200
@<TRIPOS>BOND
     1     1     2 1   
     2     2     3 ar  
     3     2     9 ar  
     4     3     4 1   
     5     3     5 ar  
     6     5     6 ar  
     7     5    29 1   
     8     6     7 ar  
     9     6    10 1   
    10     7     8 1   
    11     7     9 ar  
    12     9    30 1   
    13    10    11 1   
    14    10    16 1   
    15    10    31 1   
    16    11    12 1   
    17    11    13 1   
    18    11    32 1   
    19    12    33 1   
    20    12    34 1   
    21    13    14 1   
    22    13    35 1   
    23    13    36 1   
    24    14    15 1   
    25    14    17 1   
    26    14    37 1   
    27    15    16 1   
    28    15    38 1   
    29    15    39 1   
    30    17    18 1   
    31    17    28 1   
    32    18    19 1   
    33    18    40 1   
    34    18    41 1   
    35    19    20 2   
    36    19    27 1   
    37    20    21 1   
    38    21    22 1   
    39    21    26 1   
    40    22    23 2   
    41    22    24 1   
    42    22    25 2   
    43    24    42 1   
    44    24    43 1   
    45    24    44 1   
    46    26    27 2   
    47    26    45 1   
    48    27    28 1   
    49    28    46 1   
    50    28    47 1   
@<TRIPOS>SUBSTRUCTURE
     1 2VH         1 TEMP              0 ****  ****    0 ROOT
