@<TRIPOS>MOLECULE
2VI
   54    57     1     0     0
SMALL
No Charge or Current Charge


@<TRIPOS>ATOM
      1 C1         -35.6920    29.2750   -36.8650 ca         1 2VI      -0.050000
      2 C2         -37.0920    29.0920   -36.9480 ca         1 2VI      -0.184000
      3 C4         -36.9840    29.6290   -39.2870 ca         1 2VI      -0.067200
      4 C6         -34.9160    29.6520   -37.9950 ca         1 2VI      -0.116600
      5 C8         -36.3310    30.1900   -41.4030 cc         1 2VI      -0.043300
      6 C9         -35.2260    30.2040   -40.5540 cd         1 2VI      -0.146400
      7 C11        -33.4030    29.7410   -37.8290 c          1 2VI       0.596600
      8 C14        -33.8550    30.6790   -40.9410 c3         1 2VI      -0.018200
      9 C16        -37.2160    31.8430   -43.0860 ca         1 2VI      -0.094300
     10 C17        -38.4600    31.8450   -43.7490 ca         1 2VI      -0.095000
     11 C20        -37.3750    34.2650   -42.8170 ca         1 2VI      -0.100500
     12 C24        -30.4330    31.5520   -38.1300 c3         1 2VI      -0.098400
     13 C25        -30.8680    31.9120   -36.6930 c3         1 2VI       0.161600
     14 C27        -36.4590    30.5380   -42.8640 c3         1 2VI       0.022100
     15 C19        -38.6130    34.2600   -43.4790 ca         1 2VI       0.123000
     16 C18        -39.1570    33.0520   -43.9450 ca         1 2VI      -0.100500
     17 C21        -36.6780    33.0600   -42.6210 ca         1 2VI      -0.095000
     18 N7         -37.4120    29.8300   -40.5850 na         1 2VI      -0.196700
     19 C3         -37.7590    29.2660   -38.1800 ca         1 2VI       0.149100
     20 O10        -39.1180    29.0820   -38.3430 os         1 2VI      -0.402100
     21 C29        -39.9920    28.8070   -37.2340 c3         1 2VI       0.404300
     22 C5         -35.6290    29.8310   -39.2070 ca         1 2VI      -0.038800
     23 C13        -33.1610    31.3430   -39.7530 c3         1 2VI       0.110000
     24 N12        -32.5980    30.3540   -38.8200 n          1 2VI      -0.389800
     25 O15        -32.8740    29.2020   -36.8620 o          1 2VI      -0.584000
     26 O26        -32.1540    32.5530   -36.7510 os         1 2VI      -0.456000
     27 C28        -32.7190    32.8730   -35.4700 c3         1 2VI       0.146900
     28 H1         -35.2080    29.1140   -35.9040 ha         1 2VI       0.136000
     29 H2         -37.6310    28.8010   -36.0510 ha         1 2VI       0.123000
     30 H3         -33.2440    29.8510   -41.3210 hc         1 2VI       0.051200
     31 H4         -33.9240    31.4180   -41.7470 hc         1 2VI       0.051200
     32 H5         -38.8910    30.9150   -44.1120 ha         1 2VI       0.120000
     33 H6         -36.9570    35.2010   -42.4560 ha         1 2VI       0.131500
     34 H7         -30.8120    29.4140   -38.1480 h1         1 2VI       0.055700
     35 H8         -30.7230    30.1410   -39.7430 h1         1 2VI       0.055700
     36 H9         -29.3520    31.3700   -38.1200 hc         1 2VI       0.048200
     37 H10        -30.5870    32.4180   -38.7840 hc         1 2VI       0.048200
     38 H11        -30.9010    31.0040   -36.0760 h1         1 2VI       0.027700
     39 H12        -30.1280    32.5950   -36.2550 h1         1 2VI       0.027700
     40 H13        -36.9620    29.7130   -43.3830 hc         1 2VI       0.067200
     41 H14        -35.4680    30.6060   -43.3260 hc         1 2VI       0.067200
     42 H15        -40.1160    33.0500   -44.4560 ha         1 2VI       0.131500
     43 H16        -35.7210    33.0730   -42.1040 ha         1 2VI       0.120000
     44 H17        -38.3760    29.7490   -40.8900 hn         1 2VI       0.368000
     45 H18        -39.6380    27.9480   -36.6550 h3         1 2VI       0.066700
     46 H19        -32.3520    31.9730   -40.1450 h1         1 2VI       0.052700
     47 H20        -33.8590    32.0050   -39.2230 h1         1 2VI       0.052700
     48 H21        -33.6940    33.3600   -35.5950 h1         1 2VI       0.028367
     49 H22        -32.8660    31.9640   -34.8720 h1         1 2VI       0.028367
     50 H23        -32.0640    33.5550   -34.9130 h1         1 2VI       0.028367
     51 C23        -31.1160    30.2940   -38.7300 c3         1 2VI       0.101000
     52 Cl         -39.4860    35.7670   -43.7230 cl         1 2VI      -0.199000
     53 F31        -41.2410    28.5470   -37.6790 f          1 2VI      -0.111500
     54 F30        -40.0930    29.8850   -36.4220 f          1 2VI      -0.111500
@<TRIPOS>BOND
     1     1     2 ar  
     2     1     4 ar  
     3     1    28 1   
     4     2    19 ar  
     5     2    29 1   
     6     3    18 1   
     7     3    19 ar  
     8     3    22 ar  
     9     4     7 1   
    10     4    22 ar  
    11     5     6 2   
    12     5    14 1   
    13     5    18 1   
    14     6     8 1   
    15     6    22 1   
    16     7    24 1   
    17     7    25 2   
    18     8    23 1   
    19     8    30 1   
    20     8    31 1   
    21     9    10 ar  
    22     9    14 1   
    23     9    17 ar  
    24    10    16 ar  
    25    10    32 1   
    26    11    15 ar  
    27    11    17 ar  
    28    11    33 1   
    29    12    13 1   
    30    12    36 1   
    31    12    37 1   
    32    12    51 1   
    33    13    26 1   
    34    13    38 1   
    35    13    39 1   
    36    14    40 1   
    37    14    41 1   
    38    15    16 ar  
    39    15    52 1   
    40    16    42 1   
    41    17    43 1   
    42    18    44 1   
    43    19    20 1   
    44    20    21 1   
    45    21    45 1   
    46    21    53 1   
    47    21    54 1   
    48    23    24 1   
    49    23    46 1   
    50    23    47 1   
    51    24    51 1   
    52    26    27 1   
    53    27    48 1   
    54    27    49 1   
    55    27    50 1   
    56    34    51 1   
    57    35    51 1   
@<TRIPOS>SUBSTRUCTURE
     1 2VI         1 TEMP              0 ****  ****    0 ROOT
