@<TRIPOS>MOLECULE
2VI
   54    57     1     0     0
SMALL
abcg2


@<TRIPOS>ATOM
      1 C1         -35.6040    29.5700   -36.9620 ca         1 2VI      -0.050000
      2 C2         -36.9990    29.4810   -37.0040 ca         1 2VI      -0.184000
      3 C4         -36.9100    29.8640   -39.3490 ca         1 2VI      -0.067200
      4 C6         -34.8310    29.8340   -38.0810 ca         1 2VI      -0.116600
      5 C8         -36.2200    30.3460   -41.4100 cc         1 2VI      -0.043300
      6 C9         -35.0920    30.3290   -40.6310 cd         1 2VI      -0.146400
      7 C11        -33.3480    29.7750   -37.9130 c          1 2VI       0.596600
      8 C14        -33.7020    30.7210   -40.9980 c3         1 2VI      -0.018200
      9 C16        -37.3250    31.8030   -43.1030 ca         1 2VI      -0.094300
     10 C17        -38.5060    31.6190   -43.8120 ca         1 2VI      -0.095000
     11 C20        -37.9040    34.1340   -42.8090 ca         1 2VI      -0.100500
     12 C24        -30.4310    31.4420   -37.9740 c3         1 2VI      -0.098400
     13 C25        -30.8820    31.7010   -36.5500 c3         1 2VI       0.161600
     14 C27        -36.3740    30.6570   -42.8600 c3         1 2VI       0.022100
     15 C19        -39.0780    33.9210   -43.5180 ca         1 2VI       0.123000
     16 C18        -39.3880    32.6710   -44.0250 ca         1 2VI      -0.100500
     17 C21        -37.0380    33.0730   -42.6050 ca         1 2VI      -0.095000
     18 N7         -37.3100    30.0530   -40.6370 na         1 2VI      -0.196700
     19 C3         -37.6640    29.6020   -38.2100 ca         1 2VI       0.149100
     20 O10        -39.0120    29.4990   -38.4020 os         1 2VI      -0.402100
     21 C29        -39.8240    29.1820   -37.3580 c3         1 2VI       0.404300
     22 C5         -35.5100    30.0120   -39.3030 ca         1 2VI      -0.038800
     23 C13        -33.0120    31.3590   -39.7970 c3         1 2VI       0.110000
     24 N12        -32.5520    30.3920   -38.8130 n          1 2VI      -0.389800
     25 O15        -32.8860    29.1260   -36.9790 o          1 2VI      -0.584000
     26 O26        -32.1750    32.2560   -36.5460 os         1 2VI      -0.456000
     27 C28        -32.6940    32.4010   -35.2530 c3         1 2VI       0.146900
     28 H1         -35.1190    29.4230   -36.0070 ha         1 2VI       0.136000
     29 H2         -37.5260    29.3100   -36.0750 ha         1 2VI       0.123000
     30 H3         -33.1020    29.8720   -41.3410 hc         1 2VI       0.051200
     31 H4         -33.7170    31.4400   -41.8200 hc         1 2VI       0.051200
     32 H5         -38.7490    30.6410   -44.2070 ha         1 2VI       0.120000
     33 H6         -37.6680    35.1150   -42.4180 ha         1 2VI       0.131500
     34 H7         -30.8820    29.3430   -38.1540 h1         1 2VI       0.055700
     35 H8         -30.6900    30.1720   -39.6830 h1         1 2VI       0.055700
     36 H9         -29.3590    31.2260   -37.9510 hc         1 2VI       0.048200
     37 H10        -30.5360    32.3590   -38.5610 hc         1 2VI       0.048200
     38 H11        -30.8550    30.7680   -35.9720 h1         1 2VI       0.027700
     39 H12        -30.1740    32.3920   -36.0660 h1         1 2VI       0.027700
     40 H13        -36.7240    29.7710   -43.3970 hc         1 2VI       0.067200
     41 H14        -35.3920    30.8930   -43.2740 hc         1 2VI       0.067200
     42 H15        -40.3040    32.5120   -44.5770 ha         1 2VI       0.131500
     43 H16        -36.1260    33.2370   -42.0440 ha         1 2VI       0.120000
     44 H17        -38.2610    30.0170   -40.9690 hn         1 2VI       0.368000
     45 H18        -39.4590    28.3610   -36.7370 h3         1 2VI       0.066700
     46 H19        -32.1350    31.9070   -40.1360 h1         1 2VI       0.052700
     47 H20        -33.6710    32.0970   -39.3330 h1         1 2VI       0.052700
     48 H21        -33.6870    32.8440   -35.3330 h1         1 2VI       0.028367
     49 H22        -32.7870    31.4380   -34.7360 h1         1 2VI       0.028367
     50 H23        -32.0740    33.0570   -34.6270 h1         1 2VI       0.028367
     51 C23        -31.1090    30.2690   -38.6780 c3         1 2VI       0.101000
     52 CL         -40.1740    35.2410   -43.7710 cl         1 2VI      -0.199000
     53 F31        -41.0090    28.8600   -37.8920 f          1 2VI      -0.111500
     54 F30        -40.0230    30.2730   -36.5830 f          1 2VI      -0.111500
@<TRIPOS>BOND
     1     1     2 ar  
     2     1     4 ar  
     3     1    28 1   
     4     2    19 ar  
     5     2    29 1   
     6     3    18 1   
     7     3    19 ar  
     8     3    22 ar  
     9     4     7 1   
    10     4    22 ar  
    11     5     6 2   
    12     5    14 1   
    13     5    18 1   
    14     6     8 1   
    15     6    22 1   
    16     7    24 1   
    17     7    25 2   
    18     8    23 1   
    19     8    30 1   
    20     8    31 1   
    21     9    10 ar  
    22     9    14 1   
    23     9    17 ar  
    24    10    16 ar  
    25    10    32 1   
    26    11    15 ar  
    27    11    17 ar  
    28    11    33 1   
    29    12    13 1   
    30    12    36 1   
    31    12    37 1   
    32    12    51 1   
    33    13    26 1   
    34    13    38 1   
    35    13    39 1   
    36    14    40 1   
    37    14    41 1   
    38    15    16 ar  
    39    15    52 1   
    40    16    42 1   
    41    17    43 1   
    42    18    44 1   
    43    19    20 1   
    44    20    21 1   
    45    21    45 1   
    46    21    53 1   
    47    21    54 1   
    48    23    24 1   
    49    23    46 1   
    50    23    47 1   
    51    24    51 1   
    52    26    27 1   
    53    27    48 1   
    54    27    49 1   
    55    27    50 1   
    56    34    51 1   
    57    35    51 1   
@<TRIPOS>SUBSTRUCTURE
     1 2VI         1 TEMP              0 ****  ****    0 ROOT
