@<TRIPOS>MOLECULE
2VK
   65    68     1     0     0
SMALL
abcg2


@<TRIPOS>ATOM
      1 CAK         -6.5680    -0.5190     0.7680 ca         1 2VK      -0.184500
      2 CAI         -7.9480    -0.5990     0.8160 ca         1 2VK      -0.030500
      3 CAY         -8.7170    -0.2220    -0.2820 ca         1 2VK      -0.066000
      4 CAC        -10.1370    -0.3050    -0.2250 cg         1 2VK       0.331000
      5 NAA        -11.2870    -0.3770    -0.1800 n1         1 2VK      -0.461000
      6 CAJ         -8.0860     0.2390    -1.4420 ca         1 2VK      -0.030500
      7 CAL         -6.7130     0.3200    -1.4940 ca         1 2VK      -0.184500
      8 CAZ         -5.9390    -0.0570    -0.3900 ca         1 2VK       0.175100
      9 OAX         -4.6170     0.0610    -0.5310 os         1 2VK      -0.342100
     10 CAP         -3.7650    -0.2680     0.5610 c3         1 2VK       0.163600
     11 CAO         -2.3380     0.0030     0.1380 c3         1 2VK      -0.084400
     12 CAU         -1.3720    -0.3060     1.2760 c3         1 2VK       0.173800
     13 NBD          0.0070    -0.0100     0.9390 n3         1 2VK      -0.717600
     14 CAW          0.8380     0.0910     2.1250 c6         1 2VK       0.166800
     15 CAT          2.2540     0.5170     1.7680 c6         1 2VK      -0.074900
     16 CAV          0.5670    -0.9720     0.0070 c6         1 2VK       0.166800
     17 CAS          1.9760    -0.5840    -0.4180 c6         1 2VK      -0.074900
     18 CBC          2.8920    -0.4810     0.7970 c6         1 2VK      -0.089700
     19 CBE          4.3890    -0.1820     0.5010 c3         1 2VK       0.253300
     20 CBB          4.9510    -1.1460    -0.5570 c5         1 2VK      -0.057700
     21 CAQ          4.8090    -2.6360    -0.2310 c5         1 2VK      -0.074400
     22 CAM          5.7920    -3.3400    -1.1840 c5         1 2VK      -0.079400
     23 CAN          6.7730    -2.2490    -1.6700 c5         1 2VK      -0.079400
     24 CAR          6.4490    -1.0060    -0.8370 c5         1 2VK      -0.074400
     25 OAB          5.1370    -0.4120     1.6810 oh         1 2VK      -0.660000
     26 CBA          4.5740     1.2680     0.0530 ca         1 2VK      -0.093300
     27 CAG          5.0560     2.2290     0.9410 ca         1 2VK      -0.100500
     28 CAE          5.1980     3.5570     0.5590 ca         1 2VK      -0.112500
     29 CAD          4.8670     3.9560    -0.7280 ca         1 2VK      -0.109000
     30 CAF          4.3930     3.0100    -1.6260 ca         1 2VK      -0.112500
     31 CAH          4.2500     1.6850    -1.2390 ca         1 2VK      -0.100500
     32 H1          -6.0030    -0.8220     1.6390 ha         1 2VK       0.128000
     33 H2          -8.4280    -0.9590     1.7160 ha         1 2VK       0.125000
     34 H3          -8.6740     0.5360    -2.3000 ha         1 2VK       0.125000
     35 H4          -6.2230     0.6790    -2.3900 ha         1 2VK       0.128000
     36 H5          -4.0290     0.3370     1.4360 h1         1 2VK       0.036700
     37 H6          -3.8920    -1.3210     0.8330 h1         1 2VK       0.036700
     38 H7          -2.1060    -0.5990    -0.7430 hc         1 2VK       0.065700
     39 H8          -2.2290     1.0530    -0.1440 hc         1 2VK       0.065700
     40 H9          -1.6470     0.3100     2.1370 h1         1 2VK       0.029700
     41 H10         -1.4960    -1.3550     1.5970 h1         1 2VK       0.029700
     42 H12          0.3950     0.8290     2.7990 h1         1 2VK       0.030950
     43 H13          0.8730    -0.8630     2.6820 h1         1 2VK       0.030950
     44 H14          2.2200     1.5080     1.3080 hc         1 2VK       0.053700
     45 H15          2.8220     0.6220     2.6980 hc         1 2VK       0.053700
     46 H16          0.5860    -1.9850     0.4480 h1         1 2VK       0.030950
     47 H17         -0.0650    -1.0280    -0.8800 h1         1 2VK       0.030950
     48 H18          2.3350    -1.3310    -1.1280 hc         1 2VK       0.053700
     49 H19          1.9330     0.3720    -0.9480 hc         1 2VK       0.053700
     50 H20          2.8860    -1.4660     1.2840 hc         1 2VK       0.050700
     51 H21          4.4320    -0.9600    -1.5020 hc         1 2VK       0.048700
     52 H22          5.0950    -2.8100     0.8080 hc         1 2VK       0.049700
     53 H23          3.7880    -3.0030    -0.3500 hc         1 2VK       0.049700
     54 H24          6.3090    -4.1580    -0.6810 hc         1 2VK       0.038950
     55 H25          5.2630    -3.7820    -2.0300 hc         1 2VK       0.038950
     56 H26          7.8170    -2.5500    -1.5720 hc         1 2VK       0.038950
     57 H27          6.6050    -2.0390    -2.7290 hc         1 2VK       0.038950
     58 H28          6.7020    -0.0770    -1.3490 hc         1 2VK       0.049700
     59 H29          7.0130    -1.0220     0.0990 hc         1 2VK       0.049700
     60 H30          4.5720    -0.3050     2.4520 ho         1 2VK       0.443000
     61 H31          5.3300     1.9470     1.9480 ha         1 2VK       0.112500
     62 H32          5.5730     4.2800     1.2730 ha         1 2VK       0.111000
     63 H33          4.9810     4.9900    -1.0280 ha         1 2VK       0.112000
     64 H34          4.1340     3.3000    -2.6360 ha         1 2VK       0.111000
     65 H35          3.8880     0.9740    -1.9710 ha         1 2VK       0.112500
@<TRIPOS>BOND
     1     1     2 ar  
     2     1     8 ar  
     3     1    32 1   
     4     2     3 ar  
     5     2    33 1   
     6     3     4 1   
     7     3     6 ar  
     8     4     5 3   
     9     6     7 ar  
    10     6    34 1   
    11     7     8 ar  
    12     7    35 1   
    13     8     9 1   
    14     9    10 1   
    15    10    11 1   
    16    10    36 1   
    17    10    37 1   
    18    11    12 1   
    19    11    38 1   
    20    11    39 1   
    21    12    13 1   
    22    12    40 1   
    23    12    41 1   
    24    13    14 1   
    25    13    16 1   
    26    14    15 1   
    27    14    42 1   
    28    14    43 1   
    29    15    18 1   
    30    15    44 1   
    31    15    45 1   
    32    16    17 1   
    33    16    46 1   
    34    16    47 1   
    35    17    18 1   
    36    17    48 1   
    37    17    49 1   
    38    18    19 1   
    39    18    50 1   
    40    19    20 1   
    41    19    25 1   
    42    19    26 1   
    43    20    21 1   
    44    20    24 1   
    45    20    51 1   
    46    21    22 1   
    47    21    52 1   
    48    21    53 1   
    49    22    23 1   
    50    22    54 1   
    51    22    55 1   
    52    23    24 1   
    53    23    56 1   
    54    23    57 1   
    55    24    58 1   
    56    24    59 1   
    57    25    60 1   
    58    26    27 ar  
    59    26    31 ar  
    60    27    28 ar  
    61    27    61 1   
    62    28    29 ar  
    63    28    62 1   
    64    29    30 ar  
    65    29    63 1   
    66    30    31 ar  
    67    30    64 1   
    68    31    65 1   
@<TRIPOS>SUBSTRUCTURE
     1 2VK         1 TEMP              0 ****  ****    0 ROOT
