@<TRIPOS>MOLECULE
2VK
   65    68     1     0     0
SMALL
No Charge or Current Charge


@<TRIPOS>ATOM
      1 CAK         -6.8010    -0.3160     0.8170 ca         1 2VK      -0.184500
      2 CAI         -8.2070    -0.3500     0.8340 ca         1 2VK      -0.030500
      3 CAY         -8.9360    -0.1230    -0.3490 ca         1 2VK      -0.066000
      4 CAC        -10.3720    -0.1580    -0.3290 cg         1 2VK       0.331000
      5 NAA        -11.5390    -0.1950    -0.3080 n1         1 2VK      -0.461000
      6 CAJ         -8.2520     0.1380    -1.5510 ca         1 2VK      -0.030500
      7 CAL         -6.8460     0.1720    -1.5660 ca         1 2VK      -0.184500
      8 CAZ         -6.1150    -0.0540    -0.3890 ca         1 2VK       0.175100
      9 OAX         -4.7390    -0.0080    -0.4680 os         1 2VK      -0.342100
     10 CAP         -3.8980    -0.2260     0.6770 c3         1 2VK       0.163600
     11 CAO         -2.4360    -0.1000     0.2140 c3         1 2VK      -0.084400
     12 CAU         -1.4340    -0.3220     1.3670 c3         1 2VK       0.173800
     13 NBD         -0.0170    -0.0460     1.0230 n3         1 2VK      -0.717600
     14 CAW          0.8500    -0.0450     2.2330 c6         1 2VK       0.166800
     15 CAT          2.3030     0.3720     1.9020 c6         1 2VK      -0.074900
     16 CAV          0.5350    -0.9560    -0.0210 c6         1 2VK       0.166800
     17 CAS          1.9820    -0.5720    -0.4160 c6         1 2VK      -0.074900
     18 CBC          2.9320    -0.5610     0.8200 c6         1 2VK      -0.089700
     19 CBE          4.4450    -0.2290     0.4900 c3         1 2VK       0.253300
     20 CBB          5.0970    -1.2120    -0.5610 c5         1 2VK      -0.057700
     21 CAQ          5.1560    -2.7180    -0.1680 c5         1 2VK      -0.074400
     22 CAM          5.9850    -3.3300    -1.3340 c5         1 2VK      -0.079400
     23 CAN          6.9350    -2.1790    -1.8010 c5         1 2VK      -0.079400
     24 CAR          6.6080    -0.9870    -0.8570 c5         1 2VK      -0.074400
     25 OAB          5.1890    -0.4230     1.7030 oh         1 2VK      -0.660000
     26 CBA          4.6020     1.2580     0.0480 ca         1 2VK      -0.093300
     27 CAG          4.9540     2.2760     0.9750 ca         1 2VK      -0.100500
     28 CAE          5.0840     3.6150     0.5690 ca         1 2VK      -0.112500
     29 CAD          4.8630     3.9730    -0.7680 ca         1 2VK      -0.109000
     30 CAF          4.5060     2.9880    -1.6990 ca         1 2VK      -0.112500
     31 CAH          4.3740     1.6480    -1.2960 ca         1 2VK      -0.100500
     32 H1          -6.2650    -0.4950     1.7440 ha         1 2VK       0.128000
     33 H2          -8.7280    -0.5530     1.7690 ha         1 2VK       0.125000
     34 H3          -8.8050     0.3150    -2.4720 ha         1 2VK       0.125000
     35 H4          -6.3200     0.3740    -2.4950 ha         1 2VK       0.128000
     36 H5          -4.1020     0.5220     1.4550 h1         1 2VK       0.036700
     37 H6          -4.0650    -1.2270     1.0960 h1         1 2VK       0.036700
     38 H7          -2.2590    -0.8310    -0.5820 hc         1 2VK       0.065700
     39 H8          -2.2790     0.8980    -0.2120 hc         1 2VK       0.065700
     40 H9          -1.7340     0.3390     2.1920 h1         1 2VK       0.029700
     41 H10         -1.5380    -1.3530     1.7320 h1         1 2VK       0.029700
     42 H12          0.4510     0.6530     2.9840 h1         1 2VK       0.030950
     43 H13          0.8590    -1.0440     2.6940 h1         1 2VK       0.030950
     44 H14          2.2990     1.4130     1.5530 hc         1 2VK       0.053700
     45 H15          2.8900     0.3520     2.8280 hc         1 2VK       0.053700
     46 H16          0.5240    -1.9970     0.3380 h1         1 2VK       0.030950
     47 H17         -0.0790    -0.9230    -0.9320 h1         1 2VK       0.030950
     48 H18          2.3300    -1.2860    -1.1730 hc         1 2VK       0.053700
     49 H19          1.9640     0.4150    -0.8940 hc         1 2VK       0.053700
     50 H20          2.9360    -1.5790     1.2320 hc         1 2VK       0.050700
     51 H21          4.5310    -1.1170    -1.4920 hc         1 2VK       0.048700
     52 H22          5.6570    -2.8760     0.7950 hc         1 2VK       0.049700
     53 H23          4.1630    -3.1750    -0.0930 hc         1 2VK       0.049700
     54 H24          6.5400    -4.2180    -1.0110 hc         1 2VK       0.038950
     55 H25          5.3310    -3.6460    -2.1560 hc         1 2VK       0.038950
     56 H26          7.9910    -2.4650    -1.7400 hc         1 2VK       0.038950
     57 H27          6.7370    -1.9160    -2.8470 hc         1 2VK       0.038950
     58 H28          6.8070    -0.0210    -1.3350 hc         1 2VK       0.049700
     59 H29          7.2180    -1.0260     0.0540 hc         1 2VK       0.049700
     60 H30          4.7240     0.0860     2.3960 ho         1 2VK       0.443000
     61 H31          5.1290     2.0470     2.0220 ha         1 2VK       0.112500
     62 H32          5.3570     4.3770     1.2960 ha         1 2VK       0.111000
     63 H33          4.9630     5.0110    -1.0800 ha         1 2VK       0.112000
     64 H34          4.3260     3.2630    -2.7360 ha         1 2VK       0.111000
     65 H35          4.0830     0.9210    -2.0470 ha         1 2VK       0.112500
@<TRIPOS>BOND
     1     1     2 ar  
     2     1     8 ar  
     3     1    32 1   
     4     2     3 ar  
     5     2    33 1   
     6     3     4 1   
     7     3     6 ar  
     8     4     5 3   
     9     6     7 ar  
    10     6    34 1   
    11     7     8 ar  
    12     7    35 1   
    13     8     9 1   
    14     9    10 1   
    15    10    11 1   
    16    10    36 1   
    17    10    37 1   
    18    11    12 1   
    19    11    38 1   
    20    11    39 1   
    21    12    13 1   
    22    12    40 1   
    23    12    41 1   
    24    13    14 1   
    25    13    16 1   
    26    14    15 1   
    27    14    42 1   
    28    14    43 1   
    29    15    18 1   
    30    15    44 1   
    31    15    45 1   
    32    16    17 1   
    33    16    46 1   
    34    16    47 1   
    35    17    18 1   
    36    17    48 1   
    37    17    49 1   
    38    18    19 1   
    39    18    50 1   
    40    19    20 1   
    41    19    25 1   
    42    19    26 1   
    43    20    21 1   
    44    20    24 1   
    45    20    51 1   
    46    21    22 1   
    47    21    52 1   
    48    21    53 1   
    49    22    23 1   
    50    22    54 1   
    51    22    55 1   
    52    23    24 1   
    53    23    56 1   
    54    23    57 1   
    55    24    58 1   
    56    24    59 1   
    57    25    60 1   
    58    26    27 ar  
    59    26    31 ar  
    60    27    28 ar  
    61    27    61 1   
    62    28    29 ar  
    63    28    62 1   
    64    29    30 ar  
    65    29    63 1   
    66    30    31 ar  
    67    30    64 1   
    68    31    65 1   
@<TRIPOS>SUBSTRUCTURE
     1 2VK         1 TEMP              0 ****  ****    0 ROOT
