@<TRIPOS>MOLECULE
2VL
   79    84     1     0     0
SMALL
No Charge or Current Charge


@<TRIPOS>ATOM
      1 C1         -37.4370    28.0220    -7.1240 c3         1 2VL      -0.050800
      2 C2         -38.6190    28.4990    -7.9800 ca         1 2VL      -0.045300
      3 C3         -38.3980    28.9510    -9.3110 ca         1 2VL      -0.018800
      4 C4         -39.5000    29.2470   -10.1380 ca         1 2VL      -0.081000
      5 C5         -40.8100    29.1320    -9.6560 ca         1 2VL      -0.106000
      6 C6         -41.0320    28.7260    -8.3340 ca         1 2VL      -0.126000
      7 C7         -39.9520    28.4260    -7.4860 ca         1 2VL      -0.048000
      8 N8         -40.2660    28.0230    -6.1630 ns         1 2VL      -0.153000
      9 C9         -39.7950    28.4970    -4.9480 c          1 2VL       0.642700
     10 O10        -39.0310    29.4500    -4.8490 o          1 2VL      -0.595100
     11 C11        -40.3130    27.7630    -3.7740 cc         1 2VL      -0.296600
     12 C12        -41.1760    26.6870    -3.7870 cd         1 2VL      -0.086000
     13 C13        -41.4830    26.2060    -2.4850 cd         1 2VL      -0.117300
     14 C14        -40.8630    26.9140    -1.4830 cc         1 2VL      -0.200300
     15 S15        -39.8570    28.2070    -2.1360 ss         1 2VL       0.295000
     16 C16        -41.0040    26.6000    -0.0110 c6         1 2VL      -0.006100
     17 C17        -42.2230    25.6770     0.2440 c6         1 2VL      -0.071400
     18 C18        -42.2690    24.5110    -0.7750 c6         1 2VL      -0.072400
     19 C19        -42.4150    25.0390    -2.2250 c6         1 2VL      -0.008100
     20 C20        -37.0540    29.0780    -9.8840 cc         1 2VL       0.123400
     21 C21        -36.1860    29.9480    -9.2460 cd         1 2VL      -0.125400
     22 N22        -34.8920    30.1670    -9.7070 n          1 2VL      -0.254000
     23 C23        -34.4490    29.5140   -10.8740 c          1 2VL       0.406700
     24 O24        -33.3070    29.6660   -11.3140 o          1 2VL      -0.570000
     25 C25        -35.5080    28.6250   -11.5210 cd         1 2VL       0.597200
     26 N26        -36.7350    28.4090   -11.0500 nc         1 2VL      -0.610300
     27 N27        -35.1650    27.9340   -12.6660 nu         1 2VL      -0.891200
     28 C28        -35.8550    27.1800   -13.6200 ca         1 2VL       0.318000
     29 C29        -37.2330    27.3310   -13.8670 ca         1 2VL      -0.156500
     30 C30        -37.8720    26.5590   -14.8530 ca         1 2VL      -0.056500
     31 C31        -37.1380    25.6300   -15.6150 ca         1 2VL      -0.103300
     32 C32        -35.7580    25.4880   -15.3820 ca         1 2VL      -0.056500
     33 C33        -35.1240    26.2630   -14.3950 ca         1 2VL      -0.156500
     34 C34        -37.8390    24.7860   -16.6920 c6         1 2VL       0.156800
     35 C36        -38.2190    25.7070   -17.9140 c          1 2VL       0.559000
     36 O37        -37.4560    26.5790   -18.3180 o          1 2VL      -0.563000
     37 N38        -39.4680    25.4980   -18.5480 n          1 2VL      -0.410800
     38 C39        -40.4130    24.4430   -18.1000 c6         1 2VL       0.115000
     39 C40        -39.7680    23.3590   -17.1970 c6         1 2VL       0.145800
     40 N41        -38.9550    23.9620   -16.1110 n3         1 2VL      -0.711600
     41 C42        -38.4860    22.9580   -15.1270 c3         1 2VL       0.150100
     42 C43        -39.8720    26.3490   -19.6870 c3         1 2VL       0.093300
     43 C44        -33.9670    31.0750    -8.9920 c3         1 2VL       0.081300
     44 H1         -36.9890    28.8530    -6.5660 hc         1 2VL       0.049700
     45 H2         -37.7340    27.2530    -6.4030 hc         1 2VL       0.049700
     46 H3         -36.6490    27.5690    -7.7360 hc         1 2VL       0.049700
     47 H4         -39.3350    29.5710   -11.1630 ha         1 2VL       0.130000
     48 H5         -41.6520    29.3640   -10.3040 ha         1 2VL       0.118000
     49 H6         -42.0530    28.6500    -7.9640 ha         1 2VL       0.114000
     50 H7         -40.9480    27.2800    -6.0960 hn         1 2VL       0.153000
     51 H8         -41.5890    26.2390    -4.6860 ha         1 2VL       0.129000
     52 H9         -40.0920    26.1040     0.3510 hc         1 2VL       0.054200
     53 H10        -41.1070    27.5200     0.5800 hc         1 2VL       0.054200
     54 H11        -42.1840    25.2830     1.2690 hc         1 2VL       0.045200
     55 H12        -43.1500    26.2620     0.1710 hc         1 2VL       0.045200
     56 H13        -43.1010    23.8330    -0.5400 hc         1 2VL       0.044700
     57 H14        -41.3490    23.9160    -0.6900 hc         1 2VL       0.044700
     58 H15        -43.4530    25.3570    -2.3910 hc         1 2VL       0.048700
     59 H16        -42.2250    24.2230    -2.9360 hc         1 2VL       0.048700
     60 H17        -36.4470    30.5100    -8.3540 h4         1 2VL       0.220000
     61 H18        -34.1590    27.9910   -12.8220 hn         1 2VL       0.522000
     62 H19        -37.8200    28.0560   -13.3130 ha         1 2VL       0.131500
     63 H20        -38.9390    26.6830   -15.0280 ha         1 2VL       0.116500
     64 H21        -35.1740    24.7780   -15.9640 ha         1 2VL       0.116500
     65 H22        -34.0570    26.1400   -14.2280 ha         1 2VL       0.131500
     66 H23        -37.0970    24.0940   -17.1170 h1         1 2VL       0.048700
     67 H24        -40.8640    23.9550   -18.9760 h1         1 2VL       0.047700
     68 H25        -41.2260    24.9260   -17.5410 h1         1 2VL       0.047700
     69 H26        -40.5690    22.7330   -16.7780 h1         1 2VL       0.044200
     70 H27        -39.1400    22.7050   -17.8200 h1         1 2VL       0.044200
     71 H29        -37.9600    23.4400   -14.2930 h1         1 2VL       0.037700
     72 H30        -39.3340    22.4010   -14.7080 h1         1 2VL       0.037700
     73 H31        -37.8010    22.2390   -15.5960 h1         1 2VL       0.037700
     74 H32        -40.8870    26.0930   -20.0170 h1         1 2VL       0.042700
     75 H33        -39.8540    27.4050   -19.3870 h1         1 2VL       0.042700
     76 H34        -39.1780    26.2010   -20.5250 h1         1 2VL       0.042700
     77 H35        -34.4510    31.5030    -8.1050 h1         1 2VL       0.058367
     78 H36        -33.0750    30.5200    -8.6750 h1         1 2VL       0.058367
     79 H37        -33.6630    31.8920    -9.6580 h1         1 2VL       0.058367
@<TRIPOS>BOND
     1     1     2 1   
     2     1    44 1   
     3     1    45 1   
     4     1    46 1   
     5     2     3 ar  
     6     2     7 ar  
     7     3     4 ar  
     8     3    20 1   
     9     4     5 ar  
    10     4    47 1   
    11     5     6 ar  
    12     5    48 1   
    13     6     7 ar  
    14     6    49 1   
    15     7     8 1   
    16     8     9 1   
    17     8    50 1   
    18     9    10 2   
    19     9    11 1   
    20    11    12 2   
    21    11    15 1   
    22    12    13 1   
    23    12    51 1   
    24    13    14 2   
    25    13    19 1   
    26    14    15 1   
    27    14    16 1   
    28    16    17 1   
    29    16    52 1   
    30    16    53 1   
    31    17    18 1   
    32    17    54 1   
    33    17    55 1   
    34    18    19 1   
    35    18    56 1   
    36    18    57 1   
    37    19    58 1   
    38    19    59 1   
    39    20    21 2   
    40    20    26 1   
    41    21    22 1   
    42    21    60 1   
    43    22    23 1   
    44    22    43 1   
    45    23    24 2   
    46    23    25 1   
    47    25    26 2   
    48    25    27 1   
    49    27    28 1   
    50    27    61 1   
    51    28    29 ar  
    52    28    33 ar  
    53    29    30 ar  
    54    29    62 1   
    55    30    31 ar  
    56    30    63 1   
    57    31    32 ar  
    58    31    34 1   
    59    32    33 ar  
    60    32    64 1   
    61    33    65 1   
    62    34    35 1   
    63    34    40 1   
    64    34    66 1   
    65    35    36 2   
    66    35    37 1   
    67    37    38 1   
    68    37    42 1   
    69    38    39 1   
    70    38    67 1   
    71    38    68 1   
    72    39    40 1   
    73    39    69 1   
    74    39    70 1   
    75    40    41 1   
    76    41    71 1   
    77    41    72 1   
    78    41    73 1   
    79    42    74 1   
    80    42    75 1   
    81    42    76 1   
    82    43    77 1   
    83    43    78 1   
    84    43    79 1   
@<TRIPOS>SUBSTRUCTURE
     1 2VL         1 TEMP              0 ****  ****    0 ROOT
