@<TRIPOS>MOLECULE
2VL
   79    84     1     0     0
SMALL
abcg2


@<TRIPOS>ATOM
      1 C1         -37.6160    27.7310    -7.0870 c3         1 2VL      -0.050800
      2 C2         -38.6650    28.2630    -8.0240 ca         1 2VL      -0.045300
      3 C3         -38.3500    28.7250    -9.3170 ca         1 2VL      -0.018800
      4 C4         -39.3710    29.0650   -10.2110 ca         1 2VL      -0.081000
      5 C5         -40.7030    28.9870    -9.8370 ca         1 2VL      -0.106000
      6 C6         -41.0270    28.5840    -8.5500 ca         1 2VL      -0.126000
      7 C7         -40.0200    28.2310    -7.6550 ca         1 2VL      -0.048000
      8 N8         -40.4170    27.7700    -6.3720 ns         1 2VL      -0.153000
      9 C9         -40.0620    28.3580    -5.1940 c          1 2VL       0.642700
     10 O10        -39.3360    29.3520    -5.1380 o          1 2VL      -0.595100
     11 C11        -40.5980    27.7270    -3.9800 cc         1 2VL      -0.296600
     12 C12        -41.2640    26.5390    -3.8050 cd         1 2VL      -0.086000
     13 C13        -41.6080    26.2790    -2.4530 cd         1 2VL      -0.117300
     14 C14        -41.1960    27.2840    -1.6090 cc         1 2VL      -0.200300
     15 S15        -40.3840    28.5430    -2.4640 ss         1 2VL       0.295000
     16 C16        -41.4010    27.2990    -0.1250 c6         1 2VL      -0.006100
     17 C17        -42.4600    26.2640     0.2730 c6         1 2VL      -0.071400
     18 C18        -42.2160    24.9260    -0.4290 c6         1 2VL      -0.072400
     19 C19        -42.3410    25.0650    -1.9500 c6         1 2VL      -0.008100
     20 C20        -36.9540    28.8520    -9.8020 cc         1 2VL       0.123400
     21 C21        -35.9890    29.4750    -9.0780 cd         1 2VL      -0.125400
     22 N22        -34.7170    29.6090    -9.5840 n          1 2VL      -0.254000
     23 C23        -34.3760    29.1320   -10.8160 c          1 2VL       0.406700
     24 O24        -33.2360    29.2390   -11.2870 o          1 2VL      -0.570000
     25 C25        -35.4860    28.4780   -11.5390 cd         1 2VL       0.597200
     26 N26        -36.6900    28.3580   -11.0540 nc         1 2VL      -0.610300
     27 N27        -35.1070    28.0100   -12.7590 nu         1 2VL      -0.891200
     28 C28        -35.8160    27.3120   -13.7380 ca         1 2VL       0.318000
     29 C29        -37.1910    27.0470   -13.6790 ca         1 2VL      -0.156500
     30 C30        -37.8000    26.3410   -14.7090 ca         1 2VL      -0.056500
     31 C31        -37.0800    25.8830   -15.8080 ca         1 2VL      -0.103300
     32 C32        -35.7160    26.1550   -15.8610 ca         1 2VL      -0.056500
     33 C33        -35.0880    26.8580   -14.8450 ca         1 2VL      -0.156500
     34 C34        -37.7630    25.1050   -16.9120 c6         1 2VL       0.156800
     35 C36        -38.6910    26.0380   -17.7080 c          1 2VL       0.559000
     36 O37        -38.2890    27.1650   -18.0150 o          1 2VL      -0.563000
     37 N38        -39.9020    25.5940   -18.0790 n          1 2VL      -0.410800
     38 C39        -40.4130    24.2680   -17.7430 c6         1 2VL       0.115000
     39 C40        -39.2840    23.3230   -17.4080 c6         1 2VL       0.145800
     40 N41        -38.4370    23.9170   -16.3860 n3         1 2VL      -0.711600
     41 C42        -37.4780    22.9520   -15.8610 c3         1 2VL       0.150100
     42 C43        -40.7900    26.5120   -18.7830 c3         1 2VL       0.093300
     43 C44        -33.6760    30.2750    -8.8000 c3         1 2VL       0.081300
     44 H1         -37.2400    28.5050    -6.4160 hc         1 2VL       0.049700
     45 H2         -38.0360    26.9420    -6.4620 hc         1 2VL       0.049700
     46 H3         -36.7700    27.3260    -7.6400 hc         1 2VL       0.049700
     47 H4         -39.1030    29.3930   -11.2060 ha         1 2VL       0.130000
     48 H5         -41.4840    29.2560   -10.5360 ha         1 2VL       0.118000
     49 H6         -42.0590    28.5380    -8.2260 ha         1 2VL       0.114000
     50 H7         -41.1860    27.1180    -6.3510 hn         1 2VL       0.153000
     51 H8         -41.4910    25.8510    -4.6090 ha         1 2VL       0.129000
     52 H9         -40.4540    27.0670     0.3740 hc         1 2VL       0.054200
     53 H10        -41.6910    28.2970     0.2120 hc         1 2VL       0.054200
     54 H11        -42.4500    26.1350     1.3570 hc         1 2VL       0.045200
     55 H12        -43.4520    26.6390     0.0020 hc         1 2VL       0.045200
     56 H13        -42.9210    24.1750    -0.0690 hc         1 2VL       0.044700
     57 H14        -41.2120    24.5700    -0.1780 hc         1 2VL       0.044700
     58 H15        -43.3990    25.1440    -2.2270 hc         1 2VL       0.048700
     59 H16        -41.9610    24.1700    -2.4490 hc         1 2VL       0.048700
     60 H17        -36.1570    29.9000    -8.1030 h4         1 2VL       0.220000
     61 H18        -34.1260    28.1720   -12.9460 hn         1 2VL       0.522000
     62 H19        -37.7660    27.3920   -12.8370 ha         1 2VL       0.131500
     63 H20        -38.8620    26.1400   -14.6470 ha         1 2VL       0.116500
     64 H21        -35.1330    25.8050   -16.7040 ha         1 2VL       0.116500
     65 H22        -34.0240    27.0540   -14.8990 ha         1 2VL       0.131500
     66 H23        -36.9880    24.8090   -17.6430 h1         1 2VL       0.048700
     67 H24        -40.9660    23.8880   -18.6040 h1         1 2VL       0.047700
     68 H25        -41.1080    24.3420   -16.9010 h1         1 2VL       0.047700
     69 H26        -39.7040    22.3930   -17.0250 h1         1 2VL       0.044200
     70 H27        -38.7100    23.0800   -18.3190 h1         1 2VL       0.044200
     71 H29        -36.8990    23.4010   -15.0550 h1         1 2VL       0.037700
     72 H30        -38.0170    22.0910   -15.4650 h1         1 2VL       0.037700
     73 H31        -36.7760    22.6010   -16.6350 h1         1 2VL       0.037700
     74 H32        -41.6980    25.9770   -19.0510 h1         1 2VL       0.042700
     75 H33        -41.0500    27.3650   -18.1530 h1         1 2VL       0.042700
     76 H34        -40.3140    26.8870   -19.6890 h1         1 2VL       0.042700
     77 H35        -34.1030    30.5890    -7.8530 h1         1 2VL       0.058367
     78 H36        -32.8500    29.5860    -8.6270 h1         1 2VL       0.058367
     79 H37        -33.3020    31.1410    -9.3450 h1         1 2VL       0.058367
@<TRIPOS>BOND
     1     1     2 1   
     2     1    44 1   
     3     1    45 1   
     4     1    46 1   
     5     2     3 ar  
     6     2     7 ar  
     7     3     4 ar  
     8     3    20 1   
     9     4     5 ar  
    10     4    47 1   
    11     5     6 ar  
    12     5    48 1   
    13     6     7 ar  
    14     6    49 1   
    15     7     8 1   
    16     8     9 1   
    17     8    50 1   
    18     9    10 2   
    19     9    11 1   
    20    11    12 2   
    21    11    15 1   
    22    12    13 1   
    23    12    51 1   
    24    13    14 2   
    25    13    19 1   
    26    14    15 1   
    27    14    16 1   
    28    16    17 1   
    29    16    52 1   
    30    16    53 1   
    31    17    18 1   
    32    17    54 1   
    33    17    55 1   
    34    18    19 1   
    35    18    56 1   
    36    18    57 1   
    37    19    58 1   
    38    19    59 1   
    39    20    21 2   
    40    20    26 1   
    41    21    22 1   
    42    21    60 1   
    43    22    23 1   
    44    22    43 1   
    45    23    24 2   
    46    23    25 1   
    47    25    26 2   
    48    25    27 1   
    49    27    28 1   
    50    27    61 1   
    51    28    29 ar  
    52    28    33 ar  
    53    29    30 ar  
    54    29    62 1   
    55    30    31 ar  
    56    30    63 1   
    57    31    32 ar  
    58    31    34 1   
    59    32    33 ar  
    60    32    64 1   
    61    33    65 1   
    62    34    35 1   
    63    34    40 1   
    64    34    66 1   
    65    35    36 2   
    66    35    37 1   
    67    37    38 1   
    68    37    42 1   
    69    38    39 1   
    70    38    67 1   
    71    38    68 1   
    72    39    40 1   
    73    39    69 1   
    74    39    70 1   
    75    40    41 1   
    76    41    71 1   
    77    41    72 1   
    78    41    73 1   
    79    42    74 1   
    80    42    75 1   
    81    42    76 1   
    82    43    77 1   
    83    43    78 1   
    84    43    79 1   
@<TRIPOS>SUBSTRUCTURE
     1 2VL         1 TEMP              0 ****  ****    0 ROOT
