@<TRIPOS>MOLECULE
2VM
   53    56     1     0     0
SMALL
bcc


@<TRIPOS>ATOM
      1 CAM          3.4370     1.9550    -0.3280 c6         1 2VM       0.003800
      2 CAL          3.0860     3.3820    -0.7490 c6         1 2VM      -0.059400
      3 CAK          2.2480     4.1050     0.3080 c6         1 2VM      -0.184700
      4 CBD          2.0980     5.6150     0.0130 c          1 2VM       0.930600
      5 OBF          0.9800     6.1310     0.2060 o          1 2VM      -0.842300
      6 OBE          3.1250     6.2100    -0.3730 o          1 2VM      -0.842300
      7 CAJ          0.9010     3.4080     0.5150 c6         1 2VM      -0.014200
      8 CAH          1.0870     1.9330     0.5520 cc         1 2VM       0.009700
      9 CAI          2.2160     1.2620     0.1760 cd         1 2VM      -0.170400
     10 CAE          1.9390    -0.1290     0.3330 ca         1 2VM      -0.074800
     11 CAF          2.6760    -1.2920     0.1000 ca         1 2VM      -0.069000
     12 CAA          2.0590    -2.5060     0.3340 ca         1 2VM      -0.047900
     13 BR           3.0280    -4.1070     0.0240 br         1 2VM      -0.178100
     14 CAB          0.7360    -2.6040     0.7820 ca         1 2VM      -0.123000
     15 CAC         -0.0030    -1.4580     1.0200 ca         1 2VM      -0.126000
     16 CAD          0.6100    -0.2300     0.8050 ca         1 2VM      -0.039200
     17 NAG          0.1230     1.0380     0.9570 na         1 2VM      -0.035400
     18 CAO         -1.2300     1.3390     1.3140 c3         1 2VM      -0.051700
     19 CAP         -2.1840     1.0580     0.1570 c          1 2VM       0.656100
     20 OAQ         -1.8300     1.2330    -1.0000 o          1 2VM      -0.596100
     21 N           -3.3850     0.6160     0.5310 ns         1 2VM      -0.525900
     22 CA          -4.4840     0.3850    -0.3720 c3         1 2VM      -0.037300
     23 C           -5.4340     1.6080    -0.4870 c          1 2VM       0.924600
     24 OXT         -6.4730     1.4090    -1.1470 o          1 2VM      -0.824300
     25 O           -5.0740     2.6640     0.0570 o          1 2VM      -0.824300
     26 CB          -5.2340    -0.8880     0.0390 c3         1 2VM      -0.040100
     27 CG          -4.3300    -2.0860     0.1150 ca         1 2VM      -0.044300
     28 CD1         -3.8570    -2.5580     1.3370 ca         1 2VM      -0.132000
     29 CE1         -3.0000    -3.6500     1.4000 ca         1 2VM      -0.134000
     30 CZ          -2.5970    -4.2870     0.2350 ca         1 2VM      -0.151000
     31 CE2         -3.0610    -3.8260    -0.9910 ca         1 2VM      -0.134000
     32 CD2         -3.9200    -2.7370    -1.0470 ca         1 2VM      -0.132000
     33 H1           3.8660     1.4090    -1.1740 hc         1 2VM       0.020200
     34 H2           4.2170     1.9770     0.4420 hc         1 2VM       0.020200
     35 H3           3.9980     3.9460    -0.9400 hc         1 2VM       0.045200
     36 H4           2.5290     3.3520    -1.6920 hc         1 2VM       0.045200
     37 H5           2.8030     4.0370     1.2560 hc         1 2VM       0.023700
     38 H7           0.4350     3.7640     1.4370 hc         1 2VM       0.071700
     39 H8           0.2060     3.6640    -0.2910 hc         1 2VM       0.071700
     40 H9           3.6970    -1.2360    -0.2590 ha         1 2VM       0.134000
     41 H10          0.2780    -3.5710     0.9390 ha         1 2VM       0.127000
     42 H11         -1.0340    -1.5450     1.3430 ha         1 2VM       0.141000
     43 H12         -1.5110     0.7790     2.2100 h1         1 2VM       0.070200
     44 H13         -1.3080     2.3950     1.5760 h1         1 2VM       0.070200
     45 H14         -3.5850     0.5760     1.5180 hn         1 2VM       0.290500
     46 H15         -4.0540     0.2160    -1.3630 h1         1 2VM       0.071700
     47 H17         -5.7250    -0.7310     1.0050 hc         1 2VM       0.054700
     48 H18         -6.0250    -1.0560    -0.6910 hc         1 2VM       0.054700
     49 H19         -4.1700    -2.0720     2.2540 ha         1 2VM       0.127500
     50 H20         -2.6470    -4.0000     2.3620 ha         1 2VM       0.114500
     51 H21         -1.9290    -5.1380     0.2810 ha         1 2VM       0.114000
     52 H22         -2.7590    -4.3200    -1.9060 ha         1 2VM       0.114500
     53 H23         -4.2780    -2.3900    -2.0100 ha         1 2VM       0.127500
@<TRIPOS>BOND
     1     1     2 1   
     2     1     9 1   
     3     1    33 1   
     4     1    34 1   
     5     2     3 1   
     6     2    35 1   
     7     2    36 1   
     8     3     4 1   
     9     3     7 1   
    10     3    37 1   
    11     4     5 1   
    12     4     6 1   
    13     7     8 1   
    14     7    38 1   
    15     7    39 1   
    16     8     9 2   
    17     8    17 1   
    18     9    10 1   
    19    10    11 ar  
    20    10    16 ar  
    21    11    12 ar  
    22    11    40 1   
    23    12    13 1   
    24    12    14 ar  
    25    14    15 ar  
    26    14    41 1   
    27    15    16 ar  
    28    15    42 1   
    29    16    17 1   
    30    17    18 1   
    31    18    19 1   
    32    18    43 1   
    33    18    44 1   
    34    19    20 2   
    35    19    21 1   
    36    21    22 1   
    37    21    45 1   
    38    22    23 1   
    39    22    26 1   
    40    22    46 1   
    41    23    24 1   
    42    23    25 1   
    43    26    27 1   
    44    26    47 1   
    45    26    48 1   
    46    27    28 ar  
    47    27    32 ar  
    48    28    29 ar  
    49    28    49 1   
    50    29    30 ar  
    51    29    50 1   
    52    30    31 ar  
    53    30    51 1   
    54    31    32 ar  
    55    31    52 1   
    56    32    53 1   
@<TRIPOS>SUBSTRUCTURE
     1 2VM         1 TEMP              0 ****  ****    0 ROOT
