@<TRIPOS>MOLECULE
2VM
   53    56     1     0     0
SMALL
No Charge or Current Charge


@<TRIPOS>ATOM
      1 CAM          3.3680     1.6210    -0.4200 c6         1 2VM       0.003800
      2 CAL          3.1440     3.0080    -1.0800 c6         1 2VM      -0.059400
      3 CAK          2.3230     3.9590    -0.1590 c6         1 2VM      -0.184700
      4 CBD          2.2560     5.4040    -0.7080 c          1 2VM       0.720000
      5 OBF          1.7160     5.5920    -1.7880 o          1 2VM      -0.737000
      6 OBE          2.7500     6.2960    -0.0350 o          1 2VM      -0.737000
      7 CAJ          0.9060     3.3740     0.1180 c6         1 2VM      -0.014200
      8 CAH          0.9960     1.9000     0.4330 cc         1 2VM       0.009700
      9 CAI          2.0900     1.0790     0.1840 cd         1 2VM      -0.170400
     10 CAE          1.7790    -0.2700     0.5950 ca         1 2VM      -0.074800
     11 CAF          2.5390    -1.4450     0.5510 ca         1 2VM      -0.051000
     12 CAA          1.9390    -2.6270     1.0330 ca         1 2VM      -0.047900
     13 Br           2.9160    -4.2690     1.0000 br         1 2VM      -0.178100
     14 CAB          0.6160    -2.6090     1.5370 ca         1 2VM      -0.105000
     15 CAC         -0.1230    -1.4070     1.5620 ca         1 2VM      -0.108000
     16 CAD          0.4980    -0.2420     1.0800 ca         1 2VM      -0.039200
     17 NAG          0.0130     1.0580     0.9880 na         1 2VM      -0.064700
     18 CAO         -1.3550     1.4220     1.4040 c3         1 2VM      -0.022400
     19 CAP         -2.4260     1.1200     0.3460 c          1 2VM       0.589100
     20 OAQ         -2.1980     1.1170    -0.8580 o          1 2VM      -0.596100
     21 N           -3.6840     0.8720     0.8610 ns         1 2VM      -0.458900
     22 CA          -4.8800     0.4980     0.0640 c3         1 2VM      -0.037300
     23 C           -6.0920     1.4070     0.4290 c          1 2VM       0.714000
     24 OXT         -6.6430     2.0230    -0.4730 o          1 2VM      -0.719000
     25 O           -6.3970     1.5300     1.6090 o          1 2VM      -0.719000
     26 CB          -5.2320    -1.0030     0.2260 c3         1 2VM      -0.040100
     27 CG          -4.0710    -1.9580    -0.0510 ca         1 2VM      -0.044300
     28 CD1         -3.6650    -2.8840     0.9310 ca         1 2VM      -0.114000
     29 CE1         -2.6080    -3.7750     0.6760 ca         1 2VM      -0.116000
     30 CZ          -1.9460    -3.7440    -0.5620 ca         1 2VM      -0.133000
     31 CE2         -2.3460    -2.8270    -1.5470 ca         1 2VM      -0.116000
     32 CD2         -3.4090    -1.9410    -1.2950 ca         1 2VM      -0.114000
     33 H1           3.7710     0.9200    -1.1640 hc         1 2VM       0.020200
     34 H2           4.1330     1.7110     0.3630 hc         1 2VM       0.020200
     35 H3           4.1170     3.4600    -1.3190 hc         1 2VM       0.045200
     36 H4           2.6200     2.8780    -2.0370 hc         1 2VM       0.045200
     37 H5           2.8480     4.0100     0.8050 hc         1 2VM       0.023700
     38 H7           0.4340     3.9260     0.9420 hc         1 2VM       0.071700
     39 H8           0.2610     3.5190    -0.7590 hc         1 2VM       0.071700
     40 H9           3.5530    -1.4450     0.1600 ha         1 2VM       0.116000
     41 H10          0.1650    -3.5270     1.9040 ha         1 2VM       0.109000
     42 H11         -1.1420    -1.3930     1.9420 ha         1 2VM       0.123000
     43 H12         -1.6050     0.8790     2.3230 h1         1 2VM       0.070200
     44 H13         -1.4000     2.4930     1.6300 h1         1 2VM       0.070200
     45 H14         -3.7880     0.9360     1.8670 hn         1 2VM       0.290500
     46 H15         -4.6640     0.6830    -0.9960 h1         1 2VM       0.071700
     47 H17         -5.6120    -1.1640     1.2430 hc         1 2VM       0.054700
     48 H18         -6.0660    -1.2410    -0.4450 hc         1 2VM       0.054700
     49 H19         -4.1680    -2.9160     1.8950 ha         1 2VM       0.109500
     50 H20         -2.3010    -4.4870     1.4390 ha         1 2VM       0.096500
     51 H21         -1.1250    -4.4290    -0.7580 ha         1 2VM       0.096000
     52 H22         -1.8360    -2.8020    -2.5070 ha         1 2VM       0.096500
     53 H23         -3.7140    -1.2390    -2.0660 ha         1 2VM       0.109500
@<TRIPOS>BOND
     1     1     2 1   
     2     1     9 1   
     3     1    33 1   
     4     1    34 1   
     5     2     3 1   
     6     2    35 1   
     7     2    36 1   
     8     3     4 1   
     9     3     7 1   
    10     3    37 1   
    11     4     5 1   
    12     4     6 1   
    13     7     8 1   
    14     7    38 1   
    15     7    39 1   
    16     8     9 2   
    17     8    17 1   
    18     9    10 1   
    19    10    11 ar  
    20    10    16 ar  
    21    11    12 ar  
    22    11    40 1   
    23    12    13 1   
    24    12    14 ar  
    25    14    15 ar  
    26    14    41 1   
    27    15    16 ar  
    28    15    42 1   
    29    16    17 1   
    30    17    18 1   
    31    18    19 1   
    32    18    43 1   
    33    18    44 1   
    34    19    20 2   
    35    19    21 1   
    36    21    22 1   
    37    21    45 1   
    38    22    23 1   
    39    22    26 1   
    40    22    46 1   
    41    23    24 1   
    42    23    25 1   
    43    26    27 1   
    44    26    47 1   
    45    26    48 1   
    46    27    28 ar  
    47    27    32 ar  
    48    28    29 ar  
    49    28    49 1   
    50    29    30 ar  
    51    29    50 1   
    52    30    31 ar  
    53    30    51 1   
    54    31    32 ar  
    55    31    52 1   
    56    32    53 1   
@<TRIPOS>SUBSTRUCTURE
     1 2VM         1 TEMP              0 ****  ****    0 ROOT
