@<TRIPOS>MOLECULE
2VN
   80    82     1     0     0
SMALL
No Charge or Current Charge


@<TRIPOS>ATOM
      1 C26          7.7310    -0.8410     0.3410 c3         1 2VN      -0.025000
      2 C1          -4.8730     4.2200     1.2460 c6         1 2VN      -0.091900
      3 C10         -3.0080    -0.5510    -0.2690 c3         1 2VN      -0.106400
      4 C11         -3.8920    -1.6340     0.3850 c3         1 2VN      -0.072400
      5 C12         -4.7610    -2.4020    -0.6390 c3         1 2VN      -0.072400
      6 C13         -5.7600    -3.4360    -0.0320 c6         1 2VN      -0.058700
      7 C14         -5.0440    -4.5910     0.7300 c6         1 2VN      -0.071900
      8 C15         -6.0570    -5.6150     1.3000 c6         1 2VN      -0.072900
      9 C16         -6.9750    -6.1790     0.1900 c6         1 2VN      -0.074400
     10 C17         -7.6990    -5.0380    -0.5630 c6         1 2VN      -0.072900
     11 C18         -6.6860    -4.0180    -1.1390 c6         1 2VN      -0.071900
     12 C2          -3.7190     4.1390     0.2130 c6         1 2VN       0.117700
     13 C20          2.4740     0.4500     0.3230 ca         1 2VN      -0.094300
     14 C21          2.8280    -0.9130     0.3590 ca         1 2VN      -0.127000
     15 C22          4.0930    -1.3290    -0.0910 ca         1 2VN      -0.078500
     16 C23          5.0150    -0.3850    -0.5760 ca         1 2VN      -0.104000
     17 C24          4.6600     0.9740    -0.6280 ca         1 2VN      -0.078500
     18 C25          3.3950     1.3900    -0.1770 ca         1 2VN      -0.127000
     19 C27          9.1720    -1.2980    -0.0990 c          1 2VN       0.736000
     20 C28          7.1530    -1.7850     1.4330 c3         1 2VN      -0.063600
     21 C29          7.7460     0.6200     0.8740 c3         1 2VN      -0.063600
     22 C3          -4.2850     4.3190    -1.2210 c6         1 2VN      -0.091900
     23 C4          -5.0610     5.6530    -1.3600 c6         1 2VN      -0.071400
     24 C55         -6.1970     5.7500    -0.3120 c6         1 2VN      -0.076400
     25 C6          -5.6510     5.5540     1.1230 c6         1 2VN      -0.071400
     26 C7          -1.7380     2.5900    -0.0500 c          1 2VN       0.653100
     27 C8           0.0530     0.8530    -0.3240 c3         1 2VN       0.114000
     28 C9          -2.1430     0.2150     0.7520 c3         1 2VN       0.104000
     29 N2          -1.3010     1.2600     0.1200 n          1 2VN      -0.431800
     30 N1          -3.0300     2.8510     0.3340 ns         1 2VN      -0.517900
     31 O2           9.4740    -2.4820    -0.0040 o          1 2VN      -0.706000
     32 O1          -1.0210     3.4610    -0.5170 o          1 2VN      -0.643100
     33 O3           9.9740    -0.4510    -0.4750 o          1 2VN      -0.706000
     34 S1           6.6200    -0.9160    -1.1600 ss         1 2VN      -0.198000
     35 H2          -5.5640     3.3770     1.1040 hc         1 2VN       0.043700
     36 H1          -4.4680     4.1240     2.2630 hc         1 2VN       0.043700
     37 H18         -2.3540    -1.0190    -1.0150 hc         1 2VN       0.046200
     38 H17         -3.6460     0.1620    -0.8060 hc         1 2VN       0.046200
     39 H20         -3.2440    -2.3370     0.9210 hc         1 2VN       0.038200
     40 H19         -4.5450    -1.1640     1.1310 hc         1 2VN       0.038200
     41 H22         -5.3250    -1.6640    -1.2220 hc         1 2VN       0.039200
     42 H21         -4.0970    -2.9070    -1.3530 hc         1 2VN       0.039200
     43 H23         -6.3850    -2.8820     0.6820 hc         1 2VN       0.041700
     44 H24         -4.3420    -5.1040     0.0570 hc         1 2VN       0.039450
     45 H25         -4.4460    -4.1910     1.5590 hc         1 2VN       0.039450
     46 H26         -5.5190    -6.4370     1.7910 hc         1 2VN       0.036200
     47 H27         -6.6680    -5.1350     2.0770 hc         1 2VN       0.036200
     48 H28         -6.3790    -6.7710    -0.5180 hc         1 2VN       0.037200
     49 H29         -7.7130    -6.8640     0.6280 hc         1 2VN       0.037200
     50 H31         -8.3090    -5.4550    -1.3750 hc         1 2VN       0.036200
     51 H30         -8.3930    -4.5260     0.1180 hc         1 2VN       0.036200
     52 H32         -7.2320    -3.2050    -1.6360 hc         1 2VN       0.039450
     53 H33         -6.0790    -4.5040    -1.9160 hc         1 2VN       0.039450
     54 H35          0.7690     0.2640     1.6340 hc         1 2VN       0.048700
     55 H34          1.1540     1.9200     1.2010 hc         1 2VN       0.048700
     56 H3          -2.9980     4.9450     0.4210 h1         1 2VN       0.082700
     57 HK6          2.1230    -1.6510     0.7350 ha         1 2VN       0.099500
     58 HL7          4.3580    -2.3830    -0.0610 ha         1 2VN       0.122500
     59 HL8          5.3650     1.7070    -1.0140 ha         1 2VN       0.122500
     60 HK9          3.1310     2.4440    -0.2190 ha         1 2VN       0.099500
     61 HJ2          7.0060    -2.7990     1.0420 hc         1 2VN       0.025533
     62 HJ1          7.8340    -1.8430     2.2910 hc         1 2VN       0.025533
     63 HJ0          6.1870    -1.4230     1.8020 hc         1 2VN       0.025533
     64 HJ4          6.7620     0.9140     1.2580 hc         1 2VN       0.025533
     65 HJ5          8.4670     0.7230     1.6940 hc         1 2VN       0.025533
     66 HJ3          8.0230     1.3270     0.0820 hc         1 2VN       0.025533
     67 H4          -3.4660     4.2950    -1.9520 hc         1 2VN       0.043700
     68 H5          -4.9490     3.4790    -1.4690 hc         1 2VN       0.043700
     69 H7          -4.3700     6.4980    -1.2360 hc         1 2VN       0.040700
     70 H6          -5.4790     5.7380    -2.3720 hc         1 2VN       0.040700
     71 H9          -6.6960     6.7260    -0.3920 hc         1 2VN       0.035700
     72 H8          -6.9620     4.9900    -0.5240 hc         1 2VN       0.035700
     73 H11         -6.4810     5.5700     1.8430 hc         1 2VN       0.040700
     74 H10         -4.9920     6.3930     1.3870 hc         1 2VN       0.040700
     75 H14          0.3830     1.4940    -1.1520 h1         1 2VN       0.057700
     76 H13          0.0020    -0.1710    -0.7180 h1         1 2VN       0.057700
     77 H16         -2.7800     0.6550     1.5300 h1         1 2VN       0.047700
     78 H15         -1.4880    -0.5050     1.2600 h1         1 2VN       0.047700
     79 H12         -3.5530     2.0660     0.6950 hn         1 2VN       0.299500
     80 C19          1.1020     0.8990     0.8040 c3         1 2VN      -0.046100
@<TRIPOS>BOND
     1     1    19 1   
     2     1    20 1   
     3     1    21 1   
     4     1    34 1   
     5     2    12 1   
     6     2    25 1   
     7     2    35 1   
     8     2    36 1   
     9     3     4 1   
    10     3    28 1   
    11     3    37 1   
    12     3    38 1   
    13     4     5 1   
    14     4    39 1   
    15     4    40 1   
    16     5     6 1   
    17     5    41 1   
    18     5    42 1   
    19     6     7 1   
    20     6    11 1   
    21     6    43 1   
    22     7     8 1   
    23     7    44 1   
    24     7    45 1   
    25     8     9 1   
    26     8    46 1   
    27     8    47 1   
    28     9    10 1   
    29     9    48 1   
    30     9    49 1   
    31    10    11 1   
    32    10    50 1   
    33    10    51 1   
    34    11    52 1   
    35    11    53 1   
    36    12    22 1   
    37    12    30 1   
    38    12    56 1   
    39    13    14 ar  
    40    13    18 ar  
    41    13    80 1   
    42    14    15 ar  
    43    14    57 1   
    44    15    16 ar  
    45    15    58 1   
    46    16    17 ar  
    47    16    34 1   
    48    17    18 ar  
    49    17    59 1   
    50    18    60 1   
    51    19    31 1   
    52    19    33 1   
    53    20    61 1   
    54    20    62 1   
    55    20    63 1   
    56    21    64 1   
    57    21    65 1   
    58    21    66 1   
    59    22    23 1   
    60    22    67 1   
    61    22    68 1   
    62    23    24 1   
    63    23    69 1   
    64    23    70 1   
    65    24    25 1   
    66    24    71 1   
    67    24    72 1   
    68    25    73 1   
    69    25    74 1   
    70    26    29 1   
    71    26    30 1   
    72    26    32 2   
    73    27    29 1   
    74    27    75 1   
    75    27    76 1   
    76    27    80 1   
    77    28    29 1   
    78    28    77 1   
    79    28    78 1   
    80    30    79 1   
    81    54    80 1   
    82    55    80 1   
@<TRIPOS>SUBSTRUCTURE
     1 2VN         1 TEMP              0 ****  ****    0 ROOT
