@<TRIPOS>MOLECULE
2VN
   80    82     1     0     0
SMALL
abcg2


@<TRIPOS>ATOM
      1 C26          7.5490    -0.7570     0.2110 c3         1 2VN      -0.025000
      2 C1          -4.7920     4.2510     1.2950 c6         1 2VN      -0.091900
      3 C10         -3.0390    -0.6240    -0.2110 c3         1 2VN      -0.106400
      4 C11         -3.9360    -1.6980     0.3880 c3         1 2VN      -0.072400
      5 C12         -4.7190    -2.4570    -0.6760 c3         1 2VN      -0.072400
      6 C13         -5.7270    -3.4720    -0.1390 c6         1 2VN      -0.058700
      7 C14         -5.0650    -4.6010     0.6540 c6         1 2VN      -0.071900
      8 C15         -6.0840    -5.6260     1.1470 c6         1 2VN      -0.072900
      9 C16         -6.9080    -6.1950    -0.0030 c6         1 2VN      -0.074400
     10 C17         -7.5820    -5.0780    -0.7940 c6         1 2VN      -0.072900
     11 C18         -6.5600    -4.0560    -1.2810 c6         1 2VN      -0.071900
     12 C2          -3.6450     4.0570     0.3060 c6         1 2VN       0.117700
     13 C20          2.3400     0.4550     0.5430 ca         1 2VN      -0.094300
     14 C21          2.7450    -0.8560     0.7810 ca         1 2VN      -0.127000
     15 C22          3.9580    -1.3280     0.3030 ca         1 2VN      -0.078500
     16 C23          4.8050    -0.4960    -0.4270 ca         1 2VN      -0.104000
     17 C24          4.4000     0.8150    -0.6740 ca         1 2VN      -0.078500
     18 C25          3.1870     1.2830    -0.1910 ca         1 2VN      -0.127000
     19 C27          8.8770    -1.3700    -0.3100 c          1 2VN       0.736000
     20 C28          7.1440    -1.3990     1.5310 c3         1 2VN      -0.063600
     21 C29          7.7180     0.7480     0.3880 c3         1 2VN      -0.063600
     22 C3          -4.1190     4.2970    -1.1280 c6         1 2VN      -0.091900
     23 C4          -4.7570     5.6740    -1.2830 c6         1 2VN      -0.071400
     24 C55         -5.9020     5.8660    -0.2940 c6         1 2VN      -0.076400
     25 C6          -5.4340     5.6260     1.1370 c6         1 2VN      -0.071400
     26 C7          -1.7770     2.4600     0.1660 c          1 2VN       0.653100
     27 C8          -0.0440     0.7910    -0.1150 c3         1 2VN       0.114000
     28 C9          -2.2190     0.1100     0.8450 c3         1 2VN       0.104000
     29 N2          -1.3820     1.1610     0.2970 n          1 2VN      -0.431800
     30 N1          -3.0730     2.7370     0.4850 ns         1 2VN      -0.517900
     31 O2           9.8400    -1.3020     0.4740 o          1 2VN      -0.706000
     32 O1          -0.9950     3.3370    -0.1960 o          1 2VN      -0.643100
     33 O3           8.8710    -1.8590    -1.4550 o          1 2VN      -0.706000
     34 S1           6.3160    -1.1270    -1.1110 ss         1 2VN      -0.198000
     35 H2          -5.5480     3.4740     1.1290 hc         1 2VN       0.043700
     36 H1          -4.4230     4.1180     2.3150 hc         1 2VN       0.043700
     37 H18         -2.3570    -1.0770    -0.9390 hc         1 2VN       0.046200
     38 H17         -3.6480     0.0930    -0.7720 hc         1 2VN       0.046200
     39 H20         -3.3250    -2.3900     0.9750 hc         1 2VN       0.038200
     40 H19         -4.6350    -1.2340     1.0930 hc         1 2VN       0.038200
     41 H22         -5.2550    -1.7320    -1.2990 hc         1 2VN       0.039200
     42 H21         -4.0170    -2.9680    -1.3460 hc         1 2VN       0.039200
     43 H23         -6.4120    -2.9430     0.5390 hc         1 2VN       0.041700
     44 H24         -4.3270    -5.0990     0.0130 hc         1 2VN       0.039450
     45 H25         -4.5120    -4.1980     1.5060 hc         1 2VN       0.039450
     46 H26         -5.5760    -6.4290     1.6860 hc         1 2VN       0.036200
     47 H27         -6.7540    -5.1440     1.8670 hc         1 2VN       0.036200
     48 H28         -6.2530    -6.7640    -0.6700 hc         1 2VN       0.037200
     49 H29         -7.6540    -6.8980     0.3770 hc         1 2VN       0.037200
     50 H31         -8.1310    -5.4920    -1.6430 hc         1 2VN       0.036200
     51 H30         -8.3230    -4.5790    -0.1590 hc         1 2VN       0.036200
     52 H32         -7.0610    -3.2490    -1.8230 hc         1 2VN       0.039450
     53 H33         -5.8850    -4.5390    -1.9990 hc         1 2VN       0.039450
     54 H35          0.6710     0.3760     1.8780 hc         1 2VN       0.048700
     55 H34          1.0480     1.9920     1.2940 hc         1 2VN       0.048700
     56 H3          -2.8670     4.7880     0.5400 h1         1 2VN       0.082700
     57 HK6          2.1030    -1.5200     1.3500 ha         1 2VN       0.099500
     58 HL7          4.2530    -2.3510     0.4980 ha         1 2VN       0.122500
     59 HL8          5.0380     1.4720    -1.2510 ha         1 2VN       0.122500
     60 HK9          2.8930     2.3070    -0.3920 ha         1 2VN       0.099500
     61 HJ2          7.0020    -2.4760     1.4300 hc         1 2VN       0.025533
     62 HJ1          7.9220    -1.2260     2.2750 hc         1 2VN       0.025533
     63 HJ0          6.2160    -0.9710     1.9120 hc         1 2VN       0.025533
     64 HJ4          6.7900     1.2170     0.7200 hc         1 2VN       0.025533
     65 HJ5          8.4780     0.9480     1.1440 hc         1 2VN       0.025533
     66 HJ3          8.0240     1.2310    -0.5410 hc         1 2VN       0.025533
     67 H4          -3.2770     4.1850    -1.8160 hc         1 2VN       0.043700
     68 H5          -4.8520     3.5250    -1.3910 hc         1 2VN       0.043700
     69 H7          -3.9990     6.4470    -1.1140 hc         1 2VN       0.040700
     70 H6          -5.1100     5.8080    -2.3080 hc         1 2VN       0.040700
     71 H9          -6.3230     6.8690    -0.3900 hc         1 2VN       0.035700
     72 H8          -6.7080     5.1640    -0.5350 hc         1 2VN       0.035700
     73 H11         -6.2680     5.7280     1.8350 hc         1 2VN       0.040700
     74 H10         -4.7020     6.3940     1.4110 hc         1 2VN       0.040700
     75 H14          0.2570     1.3860    -0.9770 h1         1 2VN       0.057700
     76 H13         -0.0710    -0.2490    -0.4490 h1         1 2VN       0.057700
     77 H16         -2.8660     0.5180     1.6250 h1         1 2VN       0.047700
     78 H15         -1.5690    -0.6020     1.3590 h1         1 2VN       0.047700
     79 H12         -3.7410     1.9850     0.5270 hn         1 2VN       0.299500
     80 C19          0.9960     0.9420     1.0010 c3         1 2VN      -0.046100
@<TRIPOS>BOND
     1     1    19 1   
     2     1    20 1   
     3     1    21 1   
     4     1    34 1   
     5     2    12 1   
     6     2    25 1   
     7     2    35 1   
     8     2    36 1   
     9     3     4 1   
    10     3    28 1   
    11     3    37 1   
    12     3    38 1   
    13     4     5 1   
    14     4    39 1   
    15     4    40 1   
    16     5     6 1   
    17     5    41 1   
    18     5    42 1   
    19     6     7 1   
    20     6    11 1   
    21     6    43 1   
    22     7     8 1   
    23     7    44 1   
    24     7    45 1   
    25     8     9 1   
    26     8    46 1   
    27     8    47 1   
    28     9    10 1   
    29     9    48 1   
    30     9    49 1   
    31    10    11 1   
    32    10    50 1   
    33    10    51 1   
    34    11    52 1   
    35    11    53 1   
    36    12    22 1   
    37    12    30 1   
    38    12    56 1   
    39    13    14 ar  
    40    13    18 ar  
    41    13    80 1   
    42    14    15 ar  
    43    14    57 1   
    44    15    16 ar  
    45    15    58 1   
    46    16    17 ar  
    47    16    34 1   
    48    17    18 ar  
    49    17    59 1   
    50    18    60 1   
    51    19    31 1   
    52    19    33 1   
    53    20    61 1   
    54    20    62 1   
    55    20    63 1   
    56    21    64 1   
    57    21    65 1   
    58    21    66 1   
    59    22    23 1   
    60    22    67 1   
    61    22    68 1   
    62    23    24 1   
    63    23    69 1   
    64    23    70 1   
    65    24    25 1   
    66    24    71 1   
    67    24    72 1   
    68    25    73 1   
    69    25    74 1   
    70    26    29 1   
    71    26    30 1   
    72    26    32 2   
    73    27    29 1   
    74    27    75 1   
    75    27    76 1   
    76    27    80 1   
    77    28    29 1   
    78    28    77 1   
    79    28    78 1   
    80    30    79 1   
    81    54    80 1   
    82    55    80 1   
@<TRIPOS>SUBSTRUCTURE
     1 2VN         1 TEMP              0 ****  ****    0 ROOT
