@<TRIPOS>MOLECULE
2VP
   46    47     1     0     0
SMALL
No Charge or Current Charge


@<TRIPOS>ATOM
      1 C2          -2.6860    -2.1910    -0.8690 c6         1 2VP      -0.031200
      2 C1          -3.1520    -1.6530    -2.2330 c6         1 2VP      -0.073400
      3 C18         -4.3210    -0.6720    -2.0570 c6         1 2VP      -0.027100
      4 C5          -4.0530     0.3860    -0.9870 ca         1 2VP      -0.071300
      5 C4          -4.8390     1.5540    -0.9970 ca         1 2VP      -0.114000
      6 C3          -4.6590     2.5450    -0.0220 ca         1 2VP      -0.115000
      7 C16         -3.6970     2.3730     0.9840 ca         1 2VP      -0.081300
      8 C7          -3.5110     3.4350     2.0580 c3         1 2VP      -0.042800
      9 C17         -2.9140     1.2040     1.0030 ca         1 2VP      -0.102000
     10 C6          -3.0640     0.1990     0.0170 ca         1 2VP      -0.023800
     11 C21         -2.2140    -1.0500     0.0520 ce         1 2VP      -0.084400
     12 C8          -1.0630    -1.1990     0.7860 cf         1 2VP      -0.127000
     13 C9          -0.2080    -2.3840     0.9120 cf         1 2VP      -0.152200
     14 C19         -0.8770    -3.6830     1.3380 c3         1 2VP      -0.035900
     15 C10          1.1490    -2.3220     0.7890 ce         1 2VP      -0.117000
     16 C11          1.9320    -1.1300     0.4320 ce         1 2VP      -0.279000
     17 C12          3.2940    -1.0980     0.3710 cf         1 2VP      -0.093000
     18 C13          4.1430     0.0490     0.0300 cf         1 2VP      -0.153200
     19 C20          3.4950     1.1980    -0.7430 c3         1 2VP      -0.040900
     20 C14          5.4780     0.0160     0.3600 ce         1 2VP      -0.194200
     21 C15          6.5610     1.0360     0.1450 c          1 2VP       0.695200
     22 O2           6.3060     2.1210    -0.3530 o          1 2VP      -0.720500
     23 O1           7.6840     0.7310     0.5170 o          1 2VP      -0.720500
     24 H1          -3.4970    -2.7510    -0.3830 hc         1 2VP       0.046700
     25 H2          -1.8790    -2.9070    -1.0620 hc         1 2VP       0.046700
     26 H3          -2.3140    -1.1440    -2.7310 hc         1 2VP       0.045700
     27 H4          -3.4520    -2.4830    -2.8870 hc         1 2VP       0.045700
     28 H5          -4.5380    -0.1910    -3.0210 hc         1 2VP       0.040700
     29 H6          -5.2260    -1.2320    -1.7840 hc         1 2VP       0.040700
     30 H7          -5.5980     1.6920    -1.7640 ha         1 2VP       0.102000
     31 H8          -5.2760     3.4410    -0.0450 ha         1 2VP       0.103000
     32 H9          -4.0800     3.1810     2.9600 hc         1 2VP       0.038033
     33 H10         -2.4570     3.5330     2.3420 hc         1 2VP       0.038033
     34 H11         -3.8500     4.4190     1.7140 hc         1 2VP       0.038033
     35 H12         -2.1970     1.0860     1.8090 ha         1 2VP       0.112000
     36 H13         -0.7030    -0.3400     1.3480 ha         1 2VP       0.177000
     37 H14         -0.9330    -4.3960     0.5070 hc         1 2VP       0.029033
     38 H15         -0.3180    -4.1690     2.1470 hc         1 2VP       0.029033
     39 H16         -1.8960    -3.5160     1.7070 hc         1 2VP       0.029033
     40 H17          1.7180    -3.2390     0.9580 ha         1 2VP       0.159000
     41 H18          1.3690    -0.2220     0.2160 ha         1 2VP       0.178000
     42 H19          3.8210    -2.0200     0.6280 ha         1 2VP       0.151000
     43 H20          3.2520     2.0360    -0.0800 hc         1 2VP       0.037367
     44 H21          4.1480     1.5720    -1.5390 hc         1 2VP       0.037367
     45 H22          2.5730     0.8960    -1.2520 hc         1 2VP       0.037367
     46 H23          5.8380    -0.8720     0.8750 ha         1 2VP       0.142000
@<TRIPOS>BOND
     1     1     2 1   
     2     1    11 1   
     3     1    24 1   
     4     1    25 1   
     5     2     3 1   
     6     2    26 1   
     7     2    27 1   
     8     3     4 1   
     9     3    28 1   
    10     3    29 1   
    11     4     5 ar  
    12     4    10 ar  
    13     5     6 ar  
    14     5    30 1   
    15     6     7 ar  
    16     6    31 1   
    17     7     8 1   
    18     7     9 ar  
    19     8    32 1   
    20     8    33 1   
    21     8    34 1   
    22     9    10 ar  
    23     9    35 1   
    24    10    11 1   
    25    11    12 2   
    26    12    13 1   
    27    12    36 1   
    28    13    14 1   
    29    13    15 2   
    30    14    37 1   
    31    14    38 1   
    32    14    39 1   
    33    15    16 1   
    34    15    40 1   
    35    16    17 2   
    36    16    41 1   
    37    17    18 1   
    38    17    42 1   
    39    18    19 1   
    40    18    20 2   
    41    19    43 1   
    42    19    44 1   
    43    19    45 1   
    44    20    21 1   
    45    20    46 1   
    46    21    22 1   
    47    21    23 1   
@<TRIPOS>SUBSTRUCTURE
     1 2VP         1 TEMP              0 ****  ****    0 ROOT
