@<TRIPOS>MOLECULE
2VP
   46    47     1     0     0
SMALL
abcg2


@<TRIPOS>ATOM
      1 C2          -2.4810    -2.1260    -0.8620 c6         1 2VP      -0.031200
      2 C1          -2.6250    -1.5280    -2.2580 c6         1 2VP      -0.073400
      3 C18         -3.7700    -0.5310    -2.2880 c6         1 2VP      -0.027100
      4 C5          -3.7410     0.4290    -1.1280 ca         1 2VP      -0.071300
      5 C4          -4.5040     1.5950    -1.1900 ca         1 2VP      -0.114000
      6 C3          -4.5390     2.4960    -0.1420 ca         1 2VP      -0.115000
      7 C16         -3.8100     2.2520     1.0230 ca         1 2VP      -0.081300
      8 C7          -3.8700     3.2060     2.1810 c3         1 2VP      -0.042800
      9 C17         -3.0510     1.0950     1.0840 ca         1 2VP      -0.102000
     10 C6          -2.9850     0.1790     0.0250 ca         1 2VP      -0.023800
     11 C21         -2.1470    -1.0380     0.1190 ce         1 2VP      -0.084400
     12 C8          -1.1100    -1.1200     0.9640 cf         1 2VP      -0.127000
     13 C9          -0.2600    -2.3070     1.1840 cf         1 2VP      -0.152200
     14 C19         -0.9180    -3.5360     1.7410 c3         1 2VP      -0.035900
     15 C10          1.0750    -2.2580     1.0090 ce         1 2VP      -0.117000
     16 C11          1.8060    -1.1150     0.5120 ce         1 2VP      -0.279000
     17 C12          3.1470    -1.0990     0.3910 cf         1 2VP      -0.093000
     18 C13          3.9470     0.0220    -0.0890 cf         1 2VP      -0.153200
     19 C20          3.2140     1.2680    -0.4890 c3         1 2VP      -0.040900
     20 C14          5.2850    -0.1460    -0.1370 ce         1 2VP      -0.194200
     21 C15          6.3780     0.8070    -0.5570 c          1 2VP       0.695200
     22 O2           6.0940     1.9800    -0.8800 o          1 2VP      -0.720500
     23 O1           7.5260     0.3130    -0.5370 o          1 2VP      -0.720500
     24 H1          -3.4220    -2.6130    -0.5830 hc         1 2VP       0.046700
     25 H2          -1.7090    -2.8950    -0.8680 hc         1 2VP       0.046700
     26 H3          -1.6890    -1.0360    -2.5380 hc         1 2VP       0.045700
     27 H4          -2.7980    -2.3180    -2.9910 hc         1 2VP       0.045700
     28 H5          -3.7690     0.0280    -3.2270 hc         1 2VP       0.040700
     29 H6          -4.7210    -1.0760    -2.2650 hc         1 2VP       0.040700
     30 H7          -5.0800     1.7990    -2.0860 ha         1 2VP       0.102000
     31 H8          -5.1400     3.3940    -0.2260 ha         1 2VP       0.103000
     32 H9          -4.8040     3.0960     2.7360 hc         1 2VP       0.038033
     33 H10         -3.0520     3.0410     2.8800 hc         1 2VP       0.038033
     34 H11         -3.8200     4.2420     1.8440 hc         1 2VP       0.038033
     35 H12         -2.5040     0.8860     1.9960 ha         1 2VP       0.112000
     36 H13         -0.8490    -0.2470     1.5570 ha         1 2VP       0.177000
     37 H14         -1.7790    -3.8490     1.1490 hc         1 2VP       0.029033
     38 H15         -0.2220    -4.3730     1.7980 hc         1 2VP       0.029033
     39 H16         -1.2950    -3.3420     2.7490 hc         1 2VP       0.029033
     40 H17          1.6600    -3.1400     1.2550 ha         1 2VP       0.159000
     41 H18          1.2300    -0.2400     0.2300 ha         1 2VP       0.178000
     42 H19          3.6990    -1.9900     0.6820 ha         1 2VP       0.151000
     43 H20          2.6850     1.6930     0.3670 hc         1 2VP       0.037367
     44 H21          3.8950     2.0130    -0.8810 hc         1 2VP       0.037367
     45 H22          2.4560     1.0460    -1.2430 hc         1 2VP       0.037367
     46 H23          5.6570    -1.1160     0.1830 ha         1 2VP       0.142000
@<TRIPOS>BOND
     1     1     2 1   
     2     1    11 1   
     3     1    24 1   
     4     1    25 1   
     5     2     3 1   
     6     2    26 1   
     7     2    27 1   
     8     3     4 1   
     9     3    28 1   
    10     3    29 1   
    11     4     5 ar  
    12     4    10 ar  
    13     5     6 ar  
    14     5    30 1   
    15     6     7 ar  
    16     6    31 1   
    17     7     8 1   
    18     7     9 ar  
    19     8    32 1   
    20     8    33 1   
    21     8    34 1   
    22     9    10 ar  
    23     9    35 1   
    24    10    11 1   
    25    11    12 2   
    26    12    13 1   
    27    12    36 1   
    28    13    14 1   
    29    13    15 2   
    30    14    37 1   
    31    14    38 1   
    32    14    39 1   
    33    15    16 1   
    34    15    40 1   
    35    16    17 2   
    36    16    41 1   
    37    17    18 1   
    38    17    42 1   
    39    18    19 1   
    40    18    20 2   
    41    19    43 1   
    42    19    44 1   
    43    19    45 1   
    44    20    21 1   
    45    20    46 1   
    46    21    22 1   
    47    21    23 1   
@<TRIPOS>SUBSTRUCTURE
     1 2VP         1 TEMP              0 ****  ****    0 ROOT
