@<TRIPOS>MOLECULE
2VQ
   27    27     1     0     0
SMALL
bcc


@<TRIPOS>ATOM
      1 S1          -3.2520     0.1490     0.1030 s6         1 2VQ       1.394800
      2 O1          -4.3490    -0.1920     0.9920 o          1 2VQ      -0.608800
      3 O2          -2.9410     1.5450    -0.1340 o          1 2VQ      -0.608800
      4 N5          -1.9310    -0.5860     0.7340 n7         1 2VQ      -0.831100
      5 C1          -0.6740    -0.5600     0.0060 c3         1 2VQ       0.199800
      6 C2           0.4650    -0.5340     1.0190 c3         1 2VQ       0.038300
      7 N3           3.5910    -1.5360    -0.4660 nc         1 2VQ      -0.679000
      8 C3           2.5380     0.3930    -0.1840 cd         1 2VQ      -0.349800
      9 C4           3.6630    -0.2120    -0.6830 cc         1 2VQ       0.428200
     10 C5           2.4470    -1.7500     0.1600 cd         1 2VQ       0.453800
     11 C6           1.9670    -3.0830     0.5990 c3         1 2VQ      -0.134400
     12 N2           1.7620    -0.6060     0.3640 na         1 2VQ      -0.153900
     13 O4           1.1370     2.1330     0.1770 o          1 2VQ      -0.206000
     14 O5           3.0630     2.5040    -0.6840 o          1 2VQ      -0.206000
     15 N1          -3.4060    -0.5250    -1.3980 n8         1 2VQ      -0.930700
     16 H1          -2.1540    -1.4740     1.1700 hn         1 2VQ       0.425800
     17 H2          -0.5790    -1.4210    -0.6600 h1         1 2VQ       0.070200
     18 H3          -0.6350     0.3350    -0.6120 h1         1 2VQ       0.070200
     19 H4           0.4120     0.3570     1.6370 h1         1 2VQ       0.086200
     20 H5           0.3950    -1.3910     1.6870 h1         1 2VQ       0.086200
     21 H6           4.4970     0.2520    -1.1850 h4         1 2VQ       0.070100
     22 H7           1.8730    -3.1410     1.6840 hc         1 2VQ       0.064700
     23 H8           0.9960    -3.3280     0.1670 hc         1 2VQ       0.064700
     24 H9           2.6810    -3.8370     0.2790 hc         1 2VQ       0.064700
     25 H10         -4.0020     0.0290    -2.0050 hn         1 2VQ       0.418800
     26 H11         -3.7340    -1.4850    -1.3660 hn         1 2VQ       0.418800
     27 N4           2.2200     1.7610    -0.2280 no         1 2VQ       0.355200
@<TRIPOS>BOND
     1     1     2 2   
     2     1     3 2   
     3     1     4 1   
     4     1    15 1   
     5     4     5 1   
     6     4    16 1   
     7     5     6 1   
     8     5    17 1   
     9     5    18 1   
    10     6    12 1   
    11     6    19 1   
    12     6    20 1   
    13     7     9 1   
    14     7    10 2   
    15     8     9 2   
    16     8    12 1   
    17     8    27 1   
    18     9    21 1   
    19    10    11 1   
    20    10    12 1   
    21    11    22 1   
    22    11    23 1   
    23    11    24 1   
    24    13    27 1   
    25    14    27 1   
    26    15    25 1   
    27    15    26 1   
@<TRIPOS>SUBSTRUCTURE
     1 2VQ         1 TEMP              0 ****  ****    0 ROOT
