@<TRIPOS>MOLECULE
2VQ
   27    27     1     0     0
SMALL
No Charge or Current Charge


@<TRIPOS>ATOM
      1 S1          -3.4220    -0.6060    -0.3230 s6         1 2VQ       1.253200
      2 O1          -3.2770    -1.8220    -1.1120 o          1 2VQ      -0.538000
      3 O2          -4.5480    -0.3600     0.5640 o          1 2VQ      -0.538000
      4 N5          -2.0630    -0.3640     0.5490 n7         1 2VQ      -0.886300
      5 C1          -0.7550    -0.6710    -0.0730 c3         1 2VQ       0.199800
      6 C2           0.3940    -0.3470     0.9030 c3         1 2VQ       0.067600
      7 N3           3.6270    -1.7370    -0.0960 nc         1 2VQ      -0.679000
      8 C3           2.5050     0.1980    -0.4900 cd         1 2VQ      -0.335200
      9 C4           3.6490    -0.5200    -0.7190 cc         1 2VQ       0.362900
     10 C5           2.4680    -1.7910     0.5340 cd         1 2VQ       0.453800
     11 C6           2.0390    -2.9810     1.3460 c3         1 2VQ      -0.134400
     12 N2           1.7320    -0.6290     0.3370 na         1 2VQ      -0.132500
     13 O4           1.1380     2.0330    -0.7950 o          1 2VQ      -0.396000
     14 O5           3.1180     2.0460    -1.7100 o          1 2VQ      -0.396000
     15 N1          -3.3240     0.6760    -1.2760 n8         1 2VQ      -1.041100
     16 H1          -2.2340    -1.0230     1.3090 hn         1 2VQ       0.481000
     17 H2          -0.6910    -1.7310    -0.3570 h1         1 2VQ       0.070200
     18 H3          -0.6090    -0.0790    -0.9870 h1         1 2VQ       0.070200
     19 H4           0.3400     0.7090     1.1910 h1         1 2VQ       0.086200
     20 H5           0.2630    -0.9340     1.8200 h1         1 2VQ       0.086200
     21 H6           4.5100    -0.2340    -1.3110 h4         1 2VQ       0.070100
     22 H7           1.9560    -2.7180     2.4060 hc         1 2VQ       0.064700
     23 H8           1.0650    -3.3540     1.0080 hc         1 2VQ       0.064700
     24 H9           2.7590    -3.8020     1.2600 hc         1 2VQ       0.064700
     25 H10         -2.6290     1.1860    -0.7400 hn         1 2VQ       0.474000
     26 H11         -4.2000     1.1330    -1.0430 hn         1 2VQ       0.474000
     27 N4           2.2370     1.5180    -1.0230 no         1 2VQ       0.735200
@<TRIPOS>BOND
     1     1     2 2   
     2     1     3 2   
     3     1     4 1   
     4     1    15 1   
     5     4     5 1   
     6     4    16 1   
     7     5     6 1   
     8     5    17 1   
     9     5    18 1   
    10     6    12 1   
    11     6    19 1   
    12     6    20 1   
    13     7     9 1   
    14     7    10 2   
    15     8     9 2   
    16     8    12 1   
    17     8    27 1   
    18     9    21 1   
    19    10    11 1   
    20    10    12 1   
    21    11    22 1   
    22    11    23 1   
    23    11    24 1   
    24    13    27 1   
    25    14    27 1   
    26    15    25 1   
    27    15    26 1   
@<TRIPOS>SUBSTRUCTURE
     1 2VQ         1 TEMP              0 ****  ****    0 ROOT
