@<TRIPOS>MOLECULE
2VS
   15    14     1     0     0
SMALL
bcc


@<TRIPOS>ATOM
      1 CA6          3.6730     0.2960     0.0430 c          1 2VS       0.585100
      2 OA4          4.7870    -0.1980     0.0380 o          1 2VS      -0.594100
      3 CA5          2.4310    -0.4390     0.0280 ce         1 2VS      -0.394200
      4 CA4          1.2570     0.2350     0.0350 cf         1 2VS       0.041000
      5 CA3         -0.0360    -0.3670     0.0230 cf         1 2VS      -0.307000
      6 CA2         -1.1920     0.3350     0.0320 ce         1 2VS       0.072900
      7 OA3         -1.2450     1.6570     0.0530 oh         1 2VS      -0.523100
      8 CA1         -2.5820    -0.3050     0.0190 c          1 2VS       0.890800
      9 OA2         -3.4930     0.5550     0.0300 o          1 2VS      -0.793300
     10 OA1         -2.6720    -1.5350     0.0000 o          1 2VS      -0.793300
     11 H1           3.5490     1.3960     0.0590 h4         1 2VS      -0.046800
     12 H4           2.4620    -1.5230     0.0130 ha         1 2VS       0.138000
     13 H5           1.3060     1.3220     0.0510 ha         1 2VS       0.106000
     14 H6          -0.1120    -1.4460     0.0070 ha         1 2VS       0.154000
     15 H7          -2.2150     1.8350     0.0540 ho         1 2VS       0.465000
@<TRIPOS>BOND
     1     1     2 2   
     2     1     3 1   
     3     1    11 1   
     4     3     4 2   
     5     3    12 1   
     6     4     5 1   
     7     4    13 1   
     8     5     6 2   
     9     5    14 1   
    10     6     7 1   
    11     6     8 1   
    12     7    15 1   
    13     8     9 1   
    14     8    10 1   
@<TRIPOS>SUBSTRUCTURE
     1 2VS         1 TEMP              0 ****  ****    0 ROOT
