@<TRIPOS>MOLECULE
2VS
   15    14     1     0     0
SMALL
No Charge or Current Charge


@<TRIPOS>ATOM
      1 CA6          3.7740     0.2560     0.0420 c          1 2VS       0.585100
      2 OA4          4.8050    -0.4030     0.0340 o          1 2VS      -0.594100
      3 CA5          2.4290    -0.3690     0.0290 ce         1 2VS      -0.444200
      4 CA4          1.2620     0.3280     0.0370 cf         1 2VS      -0.009000
      5 CA3         -0.0510    -0.3030     0.0250 cf         1 2VS      -0.357000
      6 CA2         -1.2570     0.3410     0.0320 ce         1 2VS       0.072900
      7 OA3         -1.3040     1.7070     0.0530 oh         1 2VS      -0.562100
      8 CA1         -2.6230    -0.3610     0.0180 c          1 2VS       0.680200
      9 OA2         -3.6160     0.3580     0.0270 o          1 2VS      -0.688000
     10 OA1         -2.6790    -1.5840    -0.0010 o          1 2VS      -0.688000
     11 H1           3.7990     1.3690     0.0590 h4         1 2VS      -0.046800
     12 H4           2.4130    -1.4570     0.0130 ha         1 2VS       0.188000
     13 H5           1.3010     1.4210     0.0540 ha         1 2VS       0.156000
     14 H6          -0.0630    -1.3950     0.0080 ha         1 2VS       0.204000
     15 H7          -2.2720     1.9080     0.0540 ho         1 2VS       0.504000
@<TRIPOS>BOND
     1     1     2 2   
     2     1     3 1   
     3     1    11 1   
     4     3     4 2   
     5     3    12 1   
     6     4     5 1   
     7     4    13 1   
     8     5     6 2   
     9     5    14 1   
    10     6     7 1   
    11     6     8 1   
    12     7    15 1   
    13     8     9 1   
    14     8    10 1   
@<TRIPOS>SUBSTRUCTURE
     1 2VS         1 TEMP              0 ****  ****    0 ROOT
