@<TRIPOS>MOLECULE
2VX
   49    51     1     0     0
SMALL
No Charge or Current Charge


@<TRIPOS>ATOM
      1 N1          -1.0000    -1.5220     0.8910 nh         1 2VX      -0.845200
      2 C2           0.3410    -1.0810     1.1540 ca         1 2VX       0.199000
      3 C3           1.0150    -0.2220     0.2440 ca         1 2VX       0.151000
      4 C4           2.3390     0.2230     0.4860 ca         1 2VX       0.188000
      5 C5           2.9900    -0.1910     1.6670 ca         1 2VX      -0.025000
      6 C6           2.3390    -1.0380     2.5780 ca         1 2VX      -0.157000
      7 C7           1.0330    -1.4800     2.3280 ca         1 2VX       0.204000
      8 F8           0.4360    -2.2750     3.2480 f          1 2VX      -0.153000
      9 F9           0.3920     0.1710    -0.8990 f          1 2VX      -0.165000
     10 N10          2.9640     1.0730    -0.4490 nu         1 2VX      -0.878100
     11 S11          4.5770     1.2810    -0.7940 s6         1 2VX       1.178100
     12 C12          5.1920    -0.3750    -1.1370 c3         1 2VX      -0.337400
     13 C13          7.1950    -1.8300    -1.8020 c3         1 2VX      -0.084100
     14 C14          6.6920    -0.4040    -1.5150 c3         1 2VX      -0.044400
     15 C15         -2.0640    -0.5940     0.7030 ca         1 2VX       0.315000
     16 C16         -1.9960     0.6910     1.2720 ca         1 2VX      -0.132000
     17 C17         -3.0420     1.6130     1.0940 ca         1 2VX      -0.063000
     18 C18         -4.1880     1.2840     0.3470 ca         1 2VX       0.137400
     19 C19         -4.2650     0.0020    -0.2210 ca         1 2VX      -0.155600
     20 C20         -3.2140    -0.9270    -0.0430 ca         1 2VX      -0.118000
     21 N21         -5.1810     2.2640     0.2200 nc         1 2VX      -0.610100
     22 C22         -6.2420     1.8830    -0.5030 cd         1 2VX       0.490800
     23 N23         -6.4310     0.6520    -1.1120 n          1 2VX      -0.336300
     24 C24         -5.4720    -0.3510    -1.0120 c          1 2VX       0.567600
     25 C25         -7.6660     0.3860    -1.8820 c3         1 2VX       0.083300
     26 O26         -5.6150    -1.4480    -1.5400 o          1 2VX      -0.540000
     27 O27          4.5950     2.0620    -2.0300 o          1 2VX      -0.521000
     28 O28          5.2010     1.7990     0.4250 o          1 2VX      -0.521000
     29 C29         -1.2580    -2.9820     0.7810 c3         1 2VX       0.219100
     30 H1           3.9970     0.1430     1.8960 ha         1 2VX       0.153000
     31 H2           2.8470    -1.3480     3.4890 ha         1 2VX       0.149000
     32 H3           2.4750     1.2650    -1.3150 hn         1 2VX       0.502000
     33 H4           5.0120    -0.9670    -0.2330 h1         1 2VX       0.094700
     34 H5           4.5780    -0.7660    -1.9550 h1         1 2VX       0.094700
     35 H6           8.2590    -1.8150    -2.0660 hc         1 2VX       0.037033
     36 H7           7.0700    -2.4700    -0.9200 hc         1 2VX       0.037033
     37 H8           6.6410    -2.2770    -2.6360 hc         1 2VX       0.037033
     38 H9           6.8630     0.2190    -2.4030 hc         1 2VX       0.058200
     39 H10          7.2890     0.0270    -0.7010 hc         1 2VX       0.058200
     40 H11         -1.1360     0.9840     1.8660 ha         1 2VX       0.120000
     41 H12         -2.9640     2.5990     1.5450 ha         1 2VX       0.133000
     42 H13         -3.2930    -1.9080    -0.5010 ha         1 2VX       0.139000
     43 H14         -7.0450     2.5980    -0.6380 h5         1 2VX       0.046800
     44 H15         -8.3260     1.2630    -1.8740 h1         1 2VX       0.052700
     45 H16         -7.4110     0.1470    -2.9220 h1         1 2VX       0.052700
     46 H17         -8.2030    -0.4630    -1.4400 h1         1 2VX       0.052700
     47 H18         -1.4350    -3.2680    -0.2640 h1         1 2VX       0.045033
     48 H19         -0.3990    -3.5640     1.1410 h1         1 2VX       0.045033
     49 H20         -2.1270    -3.2680     1.3880 h1         1 2VX       0.045033
@<TRIPOS>BOND
     1     1     2 1   
     2     1    15 1   
     3     1    29 1   
     4     2     3 ar  
     5     2     7 ar  
     6     3     4 ar  
     7     3     9 1   
     8     4     5 ar  
     9     4    10 1   
    10     5     6 ar  
    11     5    30 1   
    12     6     7 ar  
    13     6    31 1   
    14     7     8 1   
    15    10    11 1   
    16    10    32 1   
    17    11    12 1   
    18    11    27 2   
    19    11    28 2   
    20    12    14 1   
    21    12    33 1   
    22    12    34 1   
    23    13    14 1   
    24    13    35 1   
    25    13    36 1   
    26    13    37 1   
    27    14    38 1   
    28    14    39 1   
    29    15    16 ar  
    30    15    20 ar  
    31    16    17 ar  
    32    16    40 1   
    33    17    18 ar  
    34    17    41 1   
    35    18    19 ar  
    36    18    21 1   
    37    19    20 ar  
    38    19    24 1   
    39    20    42 1   
    40    21    22 2   
    41    22    23 1   
    42    22    43 1   
    43    23    24 1   
    44    23    25 1   
    45    24    26 2   
    46    25    44 1   
    47    25    45 1   
    48    25    46 1   
    49    29    47 1   
    50    29    48 1   
    51    29    49 1   
@<TRIPOS>SUBSTRUCTURE
     1 2VX         1 TEMP              0 ****  ****    0 ROOT
