@<TRIPOS>MOLECULE
2VX
   49    51     1     0     0
SMALL
abcg2


@<TRIPOS>ATOM
      1 N1          -0.5650    -1.2930     1.1830 nh         1 2VX      -0.845200
      2 C2           0.6010    -0.7080     1.6940 ca         1 2VX       0.199000
      3 C3           1.4140     0.1110     0.9190 ca         1 2VX       0.151000
      4 C4           2.5780     0.6920     1.4020 ca         1 2VX       0.188000
      5 C5           2.9510     0.4170     2.7130 ca         1 2VX      -0.025000
      6 C6           2.1890    -0.4190     3.5100 ca         1 2VX      -0.157000
      7 C7           1.0260    -0.9560     2.9940 ca         1 2VX       0.204000
      8 F8           0.2700    -1.7450     3.7570 f          1 2VX      -0.153000
      9 F9           1.0440     0.3540    -0.3390 f          1 2VX      -0.165000
     10 N10          3.3600     1.5410     0.5900 nu         1 2VX      -0.878100
     11 S11          4.7540     0.9510    -0.1100 s6         1 2VX       1.178100
     12 C12          4.2390    -0.2320    -1.3490 c3         1 2VX      -0.337400
     13 C13          4.9580    -1.8550    -3.1110 c3         1 2VX      -0.084100
     14 C14          5.4310    -0.8660    -2.0540 c3         1 2VX      -0.044400
     15 C15         -1.6360    -0.5060     0.8090 ca         1 2VX       0.315000
     16 C16         -1.7570     0.8180     1.2900 ca         1 2VX      -0.132000
     17 C17         -2.8250     1.6060     0.9470 ca         1 2VX      -0.063000
     18 C18         -3.8390     1.1190     0.1090 ca         1 2VX       0.137400
     19 C19         -3.7280    -0.1920    -0.3600 ca         1 2VX      -0.155600
     20 C20         -2.6380    -0.9960    -0.0180 ca         1 2VX      -0.118000
     21 N21         -4.8990     1.9310    -0.2190 nc         1 2VX      -0.610100
     22 C22         -5.7950     1.4380    -0.9880 cd         1 2VX       0.490800
     23 N23         -5.7860     0.1760    -1.5080 n          1 2VX      -0.336300
     24 C24         -4.7700    -0.7190    -1.2360 c          1 2VX       0.567600
     25 C25         -6.8670    -0.2620    -2.3790 c3         1 2VX       0.083300
     26 O26         -4.7800    -1.8430    -1.7090 o          1 2VX      -0.540000
     27 O27          5.3740     2.0880    -0.7700 o          1 2VX      -0.521000
     28 O28          5.4770     0.2410     0.9320 o          1 2VX      -0.521000
     29 C29         -0.4890    -2.6780     0.7580 c3         1 2VX       0.219100
     30 H1           3.8460     0.8720     3.1130 ha         1 2VX       0.153000
     31 H2           2.4800    -0.6310     4.5290 ha         1 2VX       0.149000
     32 H3           2.8540     2.1790    -0.0160 hn         1 2VX       0.502000
     33 H4           3.6400    -0.9870    -0.8360 h1         1 2VX       0.094700
     34 H5           3.5990     0.3070    -2.0480 h1         1 2VX       0.094700
     35 H6           5.8100    -2.3140    -3.6120 hc         1 2VX       0.037033
     36 H7           4.3610    -2.6530    -2.6680 hc         1 2VX       0.037033
     37 H8           4.3490    -1.3630    -3.8700 hc         1 2VX       0.037033
     38 H9           6.0400    -0.0900    -2.5220 hc         1 2VX       0.058200
     39 H10          6.0620    -1.3770    -1.3260 hc         1 2VX       0.058200
     40 H11         -1.0070     1.2280     1.9540 ha         1 2VX       0.120000
     41 H12         -2.9000     2.6160     1.3290 ha         1 2VX       0.133000
     42 H13         -2.5950    -2.0000    -0.4150 ha         1 2VX       0.139000
     43 H14         -6.6460     2.0460    -1.2710 h5         1 2VX       0.046800
     44 H15         -7.5850     0.5460    -2.4830 h1         1 2VX       0.052700
     45 H16         -6.4840    -0.5180    -3.3640 h1         1 2VX       0.052700
     46 H17         -7.3720    -1.1280    -1.9580 h1         1 2VX       0.052700
     47 H18         -0.3890    -2.7720    -0.3270 h1         1 2VX       0.045033
     48 H19          0.3770    -3.1480     1.2160 h1         1 2VX       0.045033
     49 H20         -1.3750    -3.2300     1.0730 h1         1 2VX       0.045033
@<TRIPOS>BOND
     1     1     2 1   
     2     1    15 1   
     3     1    29 1   
     4     2     3 ar  
     5     2     7 ar  
     6     3     4 ar  
     7     3     9 1   
     8     4     5 ar  
     9     4    10 1   
    10     5     6 ar  
    11     5    30 1   
    12     6     7 ar  
    13     6    31 1   
    14     7     8 1   
    15    10    11 1   
    16    10    32 1   
    17    11    12 1   
    18    11    27 2   
    19    11    28 2   
    20    12    14 1   
    21    12    33 1   
    22    12    34 1   
    23    13    14 1   
    24    13    35 1   
    25    13    36 1   
    26    13    37 1   
    27    14    38 1   
    28    14    39 1   
    29    15    16 ar  
    30    15    20 ar  
    31    16    17 ar  
    32    16    40 1   
    33    17    18 ar  
    34    17    41 1   
    35    18    19 ar  
    36    18    21 1   
    37    19    20 ar  
    38    19    24 1   
    39    20    42 1   
    40    21    22 2   
    41    22    23 1   
    42    22    43 1   
    43    23    24 1   
    44    23    25 1   
    45    24    26 2   
    46    25    44 1   
    47    25    45 1   
    48    25    46 1   
    49    29    47 1   
    50    29    48 1   
    51    29    49 1   
@<TRIPOS>SUBSTRUCTURE
     1 2VX         1 TEMP              0 ****  ****    0 ROOT
