@<TRIPOS>MOLECULE
2VY
   30    31     1     0     0
SMALL
No Charge or Current Charge


@<TRIPOS>ATOM
      1 CM2          4.8640    -1.1320    -1.3410 c3         1 2VY      -0.135400
      2 O1          -4.6660    -0.6180    -1.3370 o          1 2VY      -0.525100
      3 C6          -3.6300    -0.9940    -0.8000 c          1 2VY       0.609500
      4 C2          -1.5780     1.8240     1.0090 cc         1 2VY      -0.265000
      5 S1          -3.0750     1.6050     0.1240 ss         1 2VY       0.308000
      6 C5          -2.7300    -0.1020    -0.0460 cc         1 2VY      -0.345600
      7 C4          -1.5570    -0.4780     0.5760 cd         1 2VY      -0.020300
      8 C3          -0.8910     0.6440     1.1750 cd         1 2VY      -0.117300
      9 C7A          0.4360     0.5640     1.9010 c3         1 2VY       0.053200
     10 C4A          1.9780     0.7950    -0.1570 ca         1 2VY       0.395900
     11 N3A          3.0100     0.4030    -0.9160 nb         1 2VY      -0.275000
     12 C2A          3.6910    -0.6800    -0.4900 ca         1 2VY       0.180300
     13 N1A          3.4320    -1.3970     0.6230 nb         1 2VY      -0.219000
     14 C6A          2.3910    -0.9900     1.3760 ca         1 2VY       0.136900
     15 C5A          1.6080     0.1250     1.0220 ca         1 2VY      -0.264300
     16 H1           5.7870    -0.6270    -1.0310 hc         1 2VY       0.058367
     17 H2           5.0290    -2.2130    -1.2570 hc         1 2VY       0.058367
     18 H3           4.7010    -0.9070    -2.4020 hc         1 2VY       0.058367
     19 H4           0.3610     2.0010    -0.2610 hn         1 2VY       0.492000
     20 H5           1.4640     2.1620    -1.5790 hn         1 2VY       0.492000
     21 H6          -0.4660    -2.1210    -0.3100 hc         1 2VY       0.050700
     22 H7          -0.3350    -2.0490     1.4530 hc         1 2VY       0.050700
     23 H8          -1.8180    -2.6290     0.7200 hc         1 2VY       0.050700
     24 H10         -3.3180    -2.0580    -0.8690 h4         1 2VY       0.001200
     25 H12         -1.3200     2.8170     1.3570 h4         1 2VY       0.149000
     26 H13          0.6720     1.5410     2.3410 hc         1 2VY       0.057200
     27 H14          0.3320    -0.1110     2.7590 hc         1 2VY       0.057200
     28 H15          2.1840    -1.5700     2.2750 h4         1 2VY       0.014100
     29 N4A          1.3070     1.8800    -0.6150 nv         1 2VY      -1.068900
     30 CM4         -1.0160    -1.8910     0.6100 c3         1 2VY      -0.038800
@<TRIPOS>BOND
     1     1    12 1   
     2     1    16 1   
     3     1    17 1   
     4     1    18 1   
     5     2     3 2   
     6     3     6 1   
     7     3    24 1   
     8     4     5 1   
     9     4     8 2   
    10     4    25 1   
    11     5     6 1   
    12     6     7 2   
    13     7     8 1   
    14     7    30 1   
    15     8     9 1   
    16     9    15 1   
    17     9    26 1   
    18     9    27 1   
    19    10    11 ar  
    20    10    15 ar  
    21    10    29 1   
    22    11    12 ar  
    23    12    13 ar  
    24    13    14 ar  
    25    14    15 ar  
    26    14    28 1   
    27    19    29 1   
    28    20    29 1   
    29    21    30 1   
    30    22    30 1   
    31    23    30 1   
@<TRIPOS>SUBSTRUCTURE
     1 2VY         1 TEMP              0 ****  ****    0 ROOT
