@<TRIPOS>MOLECULE
2VY
   30    31     1     0     0
SMALL
abcg2


@<TRIPOS>ATOM
      1 CM2          4.8500    -1.1420    -1.3330 c3         1 2VY      -0.135400
      2 O1          -4.7450    -0.6530    -1.1760 o          1 2VY      -0.525100
      3 C6          -3.7190    -1.0620    -0.6750 c          1 2VY       0.609500
      4 C2          -1.6260     1.7490     0.9090 cc         1 2VY      -0.265000
      5 S1          -3.0870     1.4860     0.0770 ss         1 2VY       0.308000
      6 C5          -2.7560    -0.2050    -0.0190 cc         1 2VY      -0.345600
      7 C4          -1.5590    -0.5400     0.5720 cd         1 2VY      -0.020300
      8 C3          -0.8980     0.6080     1.1050 cd         1 2VY      -0.117300
      9 C7A          0.4290     0.5780     1.8130 c3         1 2VY       0.053200
     10 C4A          2.0420     0.8620    -0.1700 ca         1 2VY       0.395900
     11 N3A          3.0770     0.4240    -0.8890 nb         1 2VY      -0.275000
     12 C2A          3.6710    -0.7030    -0.5220 ca         1 2VY       0.180300
     13 N1A          3.3250    -1.4530     0.5140 nb         1 2VY      -0.219000
     14 C6A          2.2870    -1.0110     1.2270 ca         1 2VY       0.136900
     15 C5A          1.5790     0.1350     0.9520 ca         1 2VY      -0.264300
     16 H1           5.7500    -0.6220    -0.9960 hc         1 2VY       0.058367
     17 H2           5.0250    -2.2100    -1.2200 hc         1 2VY       0.058367
     18 H3           4.7150    -0.9080    -2.3870 hc         1 2VY       0.058367
     19 H4           0.5970     2.3190    -0.1990 hn         1 2VY       0.492000
     20 H5           1.7840     2.4340    -1.4200 hn         1 2VY       0.492000
     21 H6          -0.1900    -2.0700    -0.0380 hc         1 2VY       0.050700
     22 H7          -0.6070    -2.1110     1.6670 hc         1 2VY       0.050700
     23 H8          -1.7550    -2.6870     0.4710 hc         1 2VY       0.050700
     24 H10         -3.4620    -2.1320    -0.6960 h4         1 2VY       0.001200
     25 H12         -1.3640     2.7460     1.2370 h4         1 2VY       0.149000
     26 H13          0.6300     1.5710     2.2260 hc         1 2VY       0.057200
     27 H14          0.3660    -0.0970     2.6710 hc         1 2VY       0.057200
     28 H15          1.9980    -1.6180     2.0820 h4         1 2VY       0.014100
     29 N4A          1.4950     2.0320    -0.5440 nv         1 2VY      -1.068900
     30 CM4         -1.0060    -1.9240     0.6700 c3         1 2VY      -0.038800
@<TRIPOS>BOND
     1     1    12 1   
     2     1    16 1   
     3     1    17 1   
     4     1    18 1   
     5     2     3 2   
     6     3     6 1   
     7     3    24 1   
     8     4     5 1   
     9     4     8 2   
    10     4    25 1   
    11     5     6 1   
    12     6     7 2   
    13     7     8 1   
    14     7    30 1   
    15     8     9 1   
    16     9    15 1   
    17     9    26 1   
    18     9    27 1   
    19    10    11 ar  
    20    10    15 ar  
    21    10    29 1   
    22    11    12 ar  
    23    12    13 ar  
    24    13    14 ar  
    25    14    15 ar  
    26    14    28 1   
    27    19    29 1   
    28    20    29 1   
    29    21    30 1   
    30    22    30 1   
    31    23    30 1   
@<TRIPOS>SUBSTRUCTURE
     1 2VY         1 TEMP              0 ****  ****    0 ROOT
