@<TRIPOS>MOLECULE
2VZ
   46    47     1     0     0
SMALL
No Charge or Current Charge


@<TRIPOS>ATOM
      1 C2          -2.5450    -2.1750    -1.0060 c6         1 2VZ      -0.029200
      2 C1          -3.0680    -1.4820    -2.2760 c6         1 2VZ      -0.072400
      3 C18         -4.2650    -0.5780    -1.9450 c6         1 2VZ      -0.026100
      4 C5          -4.0000     0.3450    -0.7550 ca         1 2VZ      -0.072300
      5 C4          -4.8230     1.4780    -0.6000 ca         1 2VZ      -0.116000
      6 C3          -4.6510     2.3510     0.4870 ca         1 2VZ      -0.085300
      7 C6          -5.5470     3.5690     0.6450 c3         1 2VZ      -0.040800
      8 C16         -3.6560     2.0720     1.4350 ca         1 2VZ      -0.111000
      9 C17         -2.8330     0.9430     1.2930 ca         1 2VZ      -0.102000
     10 C21         -2.9790     0.0660     0.1920 ca         1 2VZ      -0.026800
     11 C7          -2.0900    -1.1490     0.0480 ce         1 2VZ      -0.098400
     12 C8          -0.9200    -1.3550     0.7370 cf         1 2VZ      -0.120000
     13 C9          -0.0270    -2.5170     0.6930 cf         1 2VZ      -0.147200
     14 C19         -0.6490    -3.8830     0.9530 c3         1 2VZ      -0.036900
     15 C10          1.3250    -2.3970     0.5610 ce         1 2VZ      -0.108000
     16 C11          2.0650    -1.1430     0.3540 ce         1 2VZ      -0.285000
     17 C12          3.4240    -1.0600     0.2780 cf         1 2VZ      -0.084000
     18 C13          4.2320     0.1500     0.0810 cf         1 2VZ      -0.158200
     19 C20          3.5350     1.3680    -0.5260 c3         1 2VZ      -0.039900
     20 C14          5.5720     0.1180     0.3860 ce         1 2VZ      -0.187200
     21 C15          6.6200     1.1930     0.2930 c          1 2VZ       0.695200
     22 O1           7.7580     0.8790     0.6070 o          1 2VZ      -0.718500
     23 O2           6.3220     2.3250    -0.0540 o          1 2VZ      -0.718500
     24 H1          -3.3210    -2.8270    -0.5810 hc         1 2VZ       0.044700
     25 H2          -1.7180    -2.8270    -1.3110 hc         1 2VZ       0.044700
     26 H3          -2.2630    -0.8810    -2.7220 hc         1 2VZ       0.041200
     27 H4          -3.3570    -2.2300    -3.0260 hc         1 2VZ       0.041200
     28 H5          -4.5280     0.0130    -2.8330 hc         1 2VZ       0.040200
     29 H6          -5.1410    -1.2030    -1.7220 hc         1 2VZ       0.040200
     30 H7          -5.6050     1.6790    -1.3290 ha         1 2VZ       0.099000
     31 H8          -6.4510     3.3180     1.2120 hc         1 2VZ       0.036033
     32 H9          -5.0330     4.3790     1.1760 hc         1 2VZ       0.036033
     33 H10         -5.8620     3.9630    -0.3290 hc         1 2VZ       0.036033
     34 H11         -3.5200     2.7290     2.2920 ha         1 2VZ       0.108000
     35 H12         -2.0930     0.7570     2.0630 ha         1 2VZ       0.118000
     36 H13         -0.5750    -0.5670     1.4030 ha         1 2VZ       0.177000
     37 H14         -0.7020    -4.4790     0.0350 hc         1 2VZ       0.028700
     38 H15         -0.0580    -4.4540     1.6790 hc         1 2VZ       0.028700
     39 H16         -1.6640    -3.7990     1.3590 hc         1 2VZ       0.028700
     40 H17          1.9230    -3.3090     0.5980 ha         1 2VZ       0.157000
     41 H18          1.4710    -0.2340     0.2670 ha         1 2VZ       0.178000
     42 H19          3.9830    -1.9900     0.4040 ha         1 2VZ       0.152000
     43 H20          3.2780     2.1040     0.2450 hc         1 2VZ       0.036700
     44 H21          4.1620     1.8650    -1.2740 hc         1 2VZ       0.036700
     45 H22          2.6140     1.1060    -1.0580 hc         1 2VZ       0.036700
     46 H23          5.9690    -0.8170     0.7750 ha         1 2VZ       0.143000
@<TRIPOS>BOND
     1     1     2 1   
     2     1    11 1   
     3     1    24 1   
     4     1    25 1   
     5     2     3 1   
     6     2    26 1   
     7     2    27 1   
     8     3     4 1   
     9     3    28 1   
    10     3    29 1   
    11     4     5 ar  
    12     4    10 ar  
    13     5     6 ar  
    14     5    30 1   
    15     6     7 1   
    16     6     8 ar  
    17     7    31 1   
    18     7    32 1   
    19     7    33 1   
    20     8     9 ar  
    21     8    34 1   
    22     9    10 ar  
    23     9    35 1   
    24    10    11 1   
    25    11    12 2   
    26    12    13 1   
    27    12    36 1   
    28    13    14 1   
    29    13    15 2   
    30    14    37 1   
    31    14    38 1   
    32    14    39 1   
    33    15    16 1   
    34    15    40 1   
    35    16    17 2   
    36    16    41 1   
    37    17    18 1   
    38    17    42 1   
    39    18    19 1   
    40    18    20 2   
    41    19    43 1   
    42    19    44 1   
    43    19    45 1   
    44    20    21 1   
    45    20    46 1   
    46    21    22 1   
    47    21    23 1   
@<TRIPOS>SUBSTRUCTURE
     1 2VZ         1 TEMP              0 ****  ****    0 ROOT
