@<TRIPOS>MOLECULE
2VZ
   46    47     1     0     0
SMALL
bcc


@<TRIPOS>ATOM
      1 C2          -2.9390    -2.3860    -0.7520 c6         1 2VZ      -0.029200
      2 C1          -3.5270    -1.8510    -2.0570 c6         1 2VZ      -0.072400
      3 C18         -4.5380    -0.7540    -1.7730 c6         1 2VZ      -0.026100
      4 C5          -4.0610     0.2370    -0.7440 ca         1 2VZ      -0.072300
      5 C4          -4.7610     1.4310    -0.5900 ca         1 2VZ      -0.134000
      6 C3          -4.4120     2.3860     0.3550 ca         1 2VZ      -0.085300
      7 C6          -5.2120     3.6430     0.5240 c3         1 2VZ      -0.040800
      8 C16         -3.3130     2.1150     1.1710 ca         1 2VZ      -0.129000
      9 C17         -2.6050     0.9370     1.0330 ca         1 2VZ      -0.120000
     10 C21         -2.9460    -0.0210     0.0690 ca         1 2VZ      -0.026800
     11 C7          -2.1820    -1.2800    -0.0740 ce         1 2VZ      -0.098400
     12 C8          -0.8890    -1.3340     0.3100 cf         1 2VZ      -0.070000
     13 C9           0.0330    -2.4600     0.3980 cf         1 2VZ      -0.147200
     14 C19         -0.4660    -3.8740     0.5340 c3         1 2VZ      -0.036900
     15 C10          1.3720    -2.2510     0.4530 ce         1 2VZ      -0.058000
     16 C11          2.0750    -0.9990     0.3090 ce         1 2VZ      -0.235000
     17 C12          3.4140    -0.9080     0.4400 cf         1 2VZ      -0.034000
     18 C13          4.2090     0.3060     0.3110 cf         1 2VZ      -0.158200
     19 C20          3.4870     1.5750    -0.0300 c3         1 2VZ      -0.039900
     20 C14          5.5420     0.1930     0.4870 ce         1 2VZ      -0.137200
     21 C15          6.6300     1.2360     0.3970 c          1 2VZ       0.905800
     22 O1           7.7840     0.7650     0.3070 o          1 2VZ      -0.823800
     23 O2           6.3340     2.4480     0.4240 o          1 2VZ      -0.823800
     24 H1          -3.7550    -2.7390    -0.1110 hc         1 2VZ       0.044700
     25 H2          -2.3050    -3.2420    -0.9610 hc         1 2VZ       0.044700
     26 H3          -2.7170    -1.4670    -2.6830 hc         1 2VZ       0.041200
     27 H4          -4.0010    -2.6610    -2.6130 hc         1 2VZ       0.041200
     28 H5          -4.8050    -0.2300    -2.6930 hc         1 2VZ       0.040200
     29 H6          -5.4670    -1.2060    -1.4090 hc         1 2VZ       0.040200
     30 H7          -5.6110     1.6160    -1.2400 ha         1 2VZ       0.117000
     31 H8          -6.0100     3.5010     1.2560 hc         1 2VZ       0.036033
     32 H9          -4.5940     4.4680     0.8790 hc         1 2VZ       0.036033
     33 H10         -5.6810     3.9500    -0.4110 hc         1 2VZ       0.036033
     34 H11         -3.0150     2.8290     1.9290 ha         1 2VZ       0.126000
     35 H12         -1.7800     0.7530     1.7090 ha         1 2VZ       0.136000
     36 H13         -0.4580    -0.3940     0.6350 ha         1 2VZ       0.127000
     37 H14         -0.7050    -4.3270    -0.4290 hc         1 2VZ       0.028700
     38 H15          0.2960    -4.5020     0.9960 hc         1 2VZ       0.028700
     39 H16         -1.3660    -3.9270     1.1480 hc         1 2VZ       0.028700
     40 H17          2.0050    -3.1200     0.6110 ha         1 2VZ       0.107000
     41 H18          1.5050    -0.1080     0.0740 ha         1 2VZ       0.128000
     42 H19          3.9660    -1.8170     0.6670 ha         1 2VZ       0.102000
     43 H20          2.7240     1.8030     0.7190 hc         1 2VZ       0.036700
     44 H21          4.1710     2.4130    -0.0890 hc         1 2VZ       0.036700
     45 H22          2.9660     1.4750    -0.9850 hc         1 2VZ       0.036700
     46 H23          5.9130    -0.8070     0.7010 ha         1 2VZ       0.093000
@<TRIPOS>BOND
     1     1     2 1   
     2     1    11 1   
     3     1    24 1   
     4     1    25 1   
     5     2     3 1   
     6     2    26 1   
     7     2    27 1   
     8     3     4 1   
     9     3    28 1   
    10     3    29 1   
    11     4     5 ar  
    12     4    10 ar  
    13     5     6 ar  
    14     5    30 1   
    15     6     7 1   
    16     6     8 ar  
    17     7    31 1   
    18     7    32 1   
    19     7    33 1   
    20     8     9 ar  
    21     8    34 1   
    22     9    10 ar  
    23     9    35 1   
    24    10    11 1   
    25    11    12 2   
    26    12    13 1   
    27    12    36 1   
    28    13    14 1   
    29    13    15 2   
    30    14    37 1   
    31    14    38 1   
    32    14    39 1   
    33    15    16 1   
    34    15    40 1   
    35    16    17 2   
    36    16    41 1   
    37    17    18 1   
    38    17    42 1   
    39    18    19 1   
    40    18    20 2   
    41    19    43 1   
    42    19    44 1   
    43    19    45 1   
    44    20    21 1   
    45    20    46 1   
    46    21    22 1   
    47    21    23 1   
@<TRIPOS>SUBSTRUCTURE
     1 2VZ         1 TEMP              0 ****  ****    0 ROOT
