@<TRIPOS>MOLECULE
2W0
   46    47     1     0     0
SMALL
No Charge or Current Charge


@<TRIPOS>ATOM
      1 C5           5.7580    -2.3480    -1.0870 c3         1 2W0      -0.043800
      2 C4           4.7070    -1.7580    -0.1480 ca         1 2W0      -0.082300
      3 C3           4.5540    -2.3270     1.1290 ca         1 2W0      -0.115000
      4 C2           3.6250    -1.8010     2.0320 ca         1 2W0      -0.115000
      5 C1           2.8330    -0.7050     1.6660 ca         1 2W0      -0.106000
      6 C6           2.9430    -0.1220     0.3830 ca         1 2W0      -0.024800
      7 C16          3.8980    -0.6540    -0.5300 ca         1 2W0      -0.062300
      8 C18          4.0950    -0.0170    -1.9180 c6         1 2W0      -0.029100
      9 C21          2.9480     0.9120    -2.3440 c6         1 2W0      -0.073400
     10 C17          2.5630     1.8630    -1.2010 c6         1 2W0      -0.032200
     11 C7           2.0810     1.0630     0.0200 ce         1 2W0      -0.081400
     12 C8           0.9140     1.4100     0.6540 cf         1 2W0      -0.130000
     13 C9           0.0410     2.5590     0.4000 cf         1 2W0      -0.153200
     14 C19          0.6810     3.9400     0.4280 c3         1 2W0      -0.035900
     15 C10         -1.3110     2.4350     0.2730 ce         1 2W0      -0.118000
     16 C11         -2.0670     1.1740     0.2770 ce         1 2W0      -0.277000
     17 C12         -3.4260     1.0960     0.1870 cf         1 2W0      -0.095000
     18 C13         -4.2480    -0.1200     0.1670 cf         1 2W0      -0.153200
     19 C20         -3.6210    -1.4000     0.7210 c3         1 2W0      -0.040900
     20 C14         -5.5450    -0.0440    -0.2820 ce         1 2W0      -0.195200
     21 C15         -6.5940    -1.1130    -0.4180 c          1 2W0       0.696200
     22 O2          -6.3350    -2.2770    -0.1560 o          1 2W0      -0.721000
     23 O1          -7.6900    -0.7590    -0.8240 o          1 2W0      -0.721000
     24 H1           5.2860    -2.8350    -1.9490 hc         1 2W0       0.036700
     25 H2           6.4370    -1.5730    -1.4630 hc         1 2W0       0.036700
     26 H3           6.3760    -3.1010    -0.5860 hc         1 2W0       0.036700
     27 H4           5.1670    -3.1740     1.4290 ha         1 2W0       0.103000
     28 H5           3.5230    -2.2380     3.0230 ha         1 2W0       0.106000
     29 H6           2.1440    -0.3070     2.4040 ha         1 2W0       0.113000
     30 H7           5.0350     0.5530    -1.9130 hc         1 2W0       0.041200
     31 H8           4.2100    -0.7930    -2.6860 hc         1 2W0       0.041200
     32 H9           3.2400     1.4850    -3.2340 hc         1 2W0       0.046700
     33 H10          2.0720     0.3120    -2.6280 hc         1 2W0       0.046700
     34 H11          3.4170     2.4960    -0.9230 hc         1 2W0       0.047200
     35 H12          1.7830     2.5320    -1.5810 hc         1 2W0       0.047200
     36 H13          0.5550     0.7550     1.4460 ha         1 2W0       0.177000
     37 H14          0.7270     4.3810    -0.5750 hc         1 2W0       0.029367
     38 H15          0.1070     4.6280     1.0610 hc         1 2W0       0.029367
     39 H16          1.7010     3.9100     0.8290 hc         1 2W0       0.029367
     40 H17         -1.8970     3.3490     0.1460 ha         1 2W0       0.159000
     41 H18         -1.4840     0.2560     0.3300 ha         1 2W0       0.178000
     42 H19         -3.9690     2.0390     0.0930 ha         1 2W0       0.151000
     43 H20         -2.7660    -1.2020     1.3760 hc         1 2W0       0.036700
     44 H21         -4.3270    -1.9640     1.3400 hc         1 2W0       0.036700
     45 H22         -3.2780    -2.0560    -0.0880 hc         1 2W0       0.036700
     46 H23         -5.8970     0.9290    -0.6150 ha         1 2W0       0.142000
@<TRIPOS>BOND
     1     1     2 1   
     2     1    24 1   
     3     1    25 1   
     4     1    26 1   
     5     2     3 ar  
     6     2     7 ar  
     7     3     4 ar  
     8     3    27 1   
     9     4     5 ar  
    10     4    28 1   
    11     5     6 ar  
    12     5    29 1   
    13     6     7 ar  
    14     6    11 1   
    15     7     8 1   
    16     8     9 1   
    17     8    30 1   
    18     8    31 1   
    19     9    10 1   
    20     9    32 1   
    21     9    33 1   
    22    10    11 1   
    23    10    34 1   
    24    10    35 1   
    25    11    12 2   
    26    12    13 1   
    27    12    36 1   
    28    13    14 1   
    29    13    15 2   
    30    14    37 1   
    31    14    38 1   
    32    14    39 1   
    33    15    16 1   
    34    15    40 1   
    35    16    17 2   
    36    16    41 1   
    37    17    18 1   
    38    17    42 1   
    39    18    19 1   
    40    18    20 2   
    41    19    43 1   
    42    19    44 1   
    43    19    45 1   
    44    20    21 1   
    45    20    46 1   
    46    21    22 1   
    47    21    23 1   
@<TRIPOS>SUBSTRUCTURE
     1 2W0         1 TEMP              0 ****  ****    0 ROOT
