@<TRIPOS>MOLECULE
2W0
   46    47     1     0     0
SMALL
abcg2


@<TRIPOS>ATOM
      1 C5           5.2320    -2.4920    -1.1990 c3         1 2W0      -0.043800
      2 C4           4.4810    -1.7370    -0.1410 ca         1 2W0      -0.082300
      3 C3           4.6530    -2.0710     1.1960 ca         1 2W0      -0.115000
      4 C2           3.9860    -1.3720     2.1940 ca         1 2W0      -0.115000
      5 C1           3.1400    -0.3350     1.8550 ca         1 2W0      -0.106000
      6 C6           2.9280     0.0120     0.5150 ca         1 2W0      -0.024800
      7 C16          3.6100    -0.6910    -0.4890 ca         1 2W0      -0.062300
      8 C18          3.4530    -0.3310    -1.9440 c6         1 2W0      -0.029100
      9 C21          2.2940     0.6130    -2.2260 c6         1 2W0      -0.073400
     10 C17          2.2500     1.7320    -1.1940 c6         1 2W0      -0.032200
     11 C7           2.0230     1.1280     0.1610 ce         1 2W0      -0.081400
     12 C8           1.0220     1.5170     0.9610 cf         1 2W0      -0.130000
     13 C9           0.1250     2.6640     0.6970 cf         1 2W0      -0.153200
     14 C19          0.7340     4.0310     0.8060 c3         1 2W0      -0.035900
     15 C10         -1.1830     2.4960     0.4340 ce         1 2W0      -0.118000
     16 C11         -1.8470     1.2170     0.3200 ce         1 2W0      -0.277000
     17 C12         -3.1570     1.0940     0.0350 cf         1 2W0      -0.095000
     18 C13         -3.8920    -0.1600    -0.0890 cf         1 2W0      -0.153200
     19 C20         -3.1300    -1.4310     0.1400 c3         1 2W0      -0.040900
     20 C14         -5.2010    -0.0810    -0.4080 ce         1 2W0      -0.195200
     21 C15         -6.2290    -1.1670    -0.6170 c          1 2W0       0.696200
     22 O2          -5.9250    -2.3620    -0.4190 o          1 2W0      -0.721000
     23 O1          -7.3480    -0.7490    -0.9850 o          1 2W0      -0.721000
     24 H1           4.5560    -3.0260    -1.8710 hc         1 2W0       0.036700
     25 H2           5.8320    -1.8260    -1.8220 hc         1 2W0       0.036700
     26 H3           5.9020    -3.2250    -0.7540 hc         1 2W0       0.036700
     27 H4           5.3240    -2.8800     1.4600 ha         1 2W0       0.103000
     28 H5           4.1410    -1.6280     3.2350 ha         1 2W0       0.106000
     29 H6           2.6570     0.2300     2.6410 ha         1 2W0       0.113000
     30 H7           4.3870     0.1300    -2.2880 hc         1 2W0       0.041200
     31 H8           3.3420    -1.2390    -2.5420 hc         1 2W0       0.041200
     32 H9           2.3900     1.0240    -3.2320 hc         1 2W0       0.046700
     33 H10          1.3480     0.0640    -2.1990 hc         1 2W0       0.046700
     34 H11          3.1960     2.2850    -1.2120 hc         1 2W0       0.047200
     35 H12          1.4590     2.4420    -1.4380 hc         1 2W0       0.047200
     36 H13          0.8300     0.9730     1.8820 ha         1 2W0       0.177000
     37 H14          1.5650     4.1530     0.1070 hc         1 2W0       0.029367
     38 H15          0.0040     4.8160     0.6090 hc         1 2W0       0.029367
     39 H16          1.1460     4.1910     1.8050 hc         1 2W0       0.029367
     40 H17         -1.7990     3.3790     0.2870 ha         1 2W0       0.159000
     41 H18         -1.2410     0.3290     0.4660 ha         1 2W0       0.178000
     42 H19         -3.7330     2.0030    -0.1190 ha         1 2W0       0.151000
     43 H20         -2.6530    -1.4230     1.1220 hc         1 2W0       0.036700
     44 H21         -3.7800    -2.2950     0.0740 hc         1 2W0       0.036700
     45 H22         -2.3290    -1.5360    -0.5950 hc         1 2W0       0.036700
     46 H23         -5.5960     0.9220    -0.5550 ha         1 2W0       0.142000
@<TRIPOS>BOND
     1     1     2 1   
     2     1    24 1   
     3     1    25 1   
     4     1    26 1   
     5     2     3 ar  
     6     2     7 ar  
     7     3     4 ar  
     8     3    27 1   
     9     4     5 ar  
    10     4    28 1   
    11     5     6 ar  
    12     5    29 1   
    13     6     7 ar  
    14     6    11 1   
    15     7     8 1   
    16     8     9 1   
    17     8    30 1   
    18     8    31 1   
    19     9    10 1   
    20     9    32 1   
    21     9    33 1   
    22    10    11 1   
    23    10    34 1   
    24    10    35 1   
    25    11    12 2   
    26    12    13 1   
    27    12    36 1   
    28    13    14 1   
    29    13    15 2   
    30    14    37 1   
    31    14    38 1   
    32    14    39 1   
    33    15    16 1   
    34    15    40 1   
    35    16    17 2   
    36    16    41 1   
    37    17    18 1   
    38    17    42 1   
    39    18    19 1   
    40    18    20 2   
    41    19    43 1   
    42    19    44 1   
    43    19    45 1   
    44    20    21 1   
    45    20    46 1   
    46    21    22 1   
    47    21    23 1   
@<TRIPOS>SUBSTRUCTURE
     1 2W0         1 TEMP              0 ****  ****    0 ROOT
