@<TRIPOS>MOLECULE
2W1
   51    55     1     0     0
SMALL
abcg2


@<TRIPOS>ATOM
      1 O01         -3.5320    -2.7790     0.9260 o          1 2W1      -0.539100
      2 C02         -3.1410    -1.6940     0.5340 c          1 2W1       0.543400
      3 C03         -4.1610    -0.7440     0.0280 cc         1 2W1       0.337800
      4 N04         -5.4780    -1.0400     0.1860 na         1 2W1      -0.279600
      5 C05         -6.1910    -0.0370    -0.3940 ca         1 2W1      -0.072200
      6 C06         -7.5580     0.1930    -0.5330 ca         1 2W1      -0.115000
      7 C07         -7.9220     1.3470    -1.1960 ca         1 2W1      -0.085000
      8 C08         -6.9640     2.2470    -1.7040 ca         1 2W1      -0.136000
      9 C09         -5.6130     2.0140    -1.5640 ca         1 2W1      -0.042000
     10 C10         -5.2210     0.8500    -0.8960 ca         1 2W1       0.057400
     11 N11         -3.9690     0.3770    -0.6170 nd         1 2W1      -0.548100
     12 C12         -1.7070    -1.3420     0.5430 ca         1 2W1      -0.187600
     13 C13         -1.2270    -0.0320     0.4820 ca         1 2W1      -0.026000
     14 C14          0.1290     0.2340     0.5450 ca         1 2W1      -0.155000
     15 C15          1.0280    -0.8200     0.6650 ca         1 2W1       0.173100
     16 O16          2.3760    -0.6510     0.6510 os         1 2W1      -0.375400
     17 C17          2.9740     0.3980     1.2810 ca         1 2W1       0.571300
     18 N18          2.4030     0.8660     2.3640 nb         1 2W1      -0.720000
     19 C19          3.0080     1.8490     3.0230 ca         1 2W1       0.368900
     20 C20          4.2190     2.3760     2.6180 ca         1 2W1      -0.185000
     21 C21          4.8060     1.8590     1.4710 ca         1 2W1      -0.055000
     22 C22          4.1870     0.8490     0.7480 ca         1 2W1      -0.120300
     23 C23          4.8060     0.2260    -0.4760 c6         1 2W1      -0.006400
     24 C24          5.8190    -0.8560    -0.0780 c6         1 2W1      -0.107900
     25 C25          6.4620    -1.4600    -1.3150 c6         1 2W1       0.154600
     26 O26          7.0660    -0.4800    -2.1310 os         1 2W1      -0.451000
     27 C27          6.1450     0.4950    -2.5680 c6         1 2W1       0.154600
     28 C28          5.4920     1.2280    -1.4060 c6         1 2W1      -0.107900
     29 C29          0.5700    -2.1310     0.7270 ca         1 2W1      -0.155000
     30 C30         -0.7850    -2.3850     0.6710 ca         1 2W1      -0.026000
     31 H1          -5.8470    -1.8630     0.6400 hn         1 2W1       0.376000
     32 H2          -8.2970    -0.4950    -0.1460 ha         1 2W1       0.121000
     33 H3          -8.9720     1.5720    -1.3290 ha         1 2W1       0.114000
     34 H4          -7.3040     3.1390    -2.2130 ha         1 2W1       0.116000
     35 H5          -4.8770     2.7060    -1.9530 ha         1 2W1       0.129000
     36 H7          -1.9110     0.7960     0.3850 ha         1 2W1       0.139000
     37 H8           0.4720     1.2580     0.4930 ha         1 2W1       0.131000
     38 H9           2.5060     2.2160     3.9100 h4         1 2W1       0.025100
     39 H10          4.6930     3.1670     3.1830 ha         1 2W1       0.130000
     40 H11          5.7580     2.2570     1.1420 ha         1 2W1       0.125000
     41 H12          4.0130    -0.2590    -1.0540 hc         1 2W1       0.069700
     42 H13          6.5890    -0.4170     0.5640 hc         1 2W1       0.052450
     43 H14          5.3310    -1.6460     0.4980 hc         1 2W1       0.052450
     44 H15          7.2450    -2.1670    -1.0340 h1         1 2W1       0.045450
     45 H16          5.7050    -2.0190    -1.8870 h1         1 2W1       0.045450
     46 H17          6.6990     1.1950    -3.1960 h1         1 2W1       0.045450
     47 H18          5.3680     0.0340    -3.1960 h1         1 2W1       0.045450
     48 H19          4.7690     1.9470    -1.8000 hc         1 2W1       0.052450
     49 H20          6.2580     1.7980    -0.8730 hc         1 2W1       0.052450
     50 H21          1.2780    -2.9450     0.8150 ha         1 2W1       0.131000
     51 H22         -1.1300    -3.4090     0.7230 ha         1 2W1       0.139000
@<TRIPOS>BOND
     1     1     2 2   
     2     2     3 1   
     3     2    12 1   
     4     3     4 1   
     5     3    11 2   
     6     4     5 1   
     7     4    31 1   
     8     5     6 ar  
     9     5    10 ar  
    10     6     7 ar  
    11     6    32 1   
    12     7     8 ar  
    13     7    33 1   
    14     8     9 ar  
    15     8    34 1   
    16     9    10 ar  
    17     9    35 1   
    18    10    11 1   
    19    12    13 ar  
    20    12    30 ar  
    21    13    14 ar  
    22    13    36 1   
    23    14    15 ar  
    24    14    37 1   
    25    15    16 1   
    26    15    29 ar  
    27    16    17 1   
    28    17    18 ar  
    29    17    22 ar  
    30    18    19 ar  
    31    19    20 ar  
    32    19    38 1   
    33    20    21 ar  
    34    20    39 1   
    35    21    22 ar  
    36    21    40 1   
    37    22    23 1   
    38    23    24 1   
    39    23    28 1   
    40    23    41 1   
    41    24    25 1   
    42    24    42 1   
    43    24    43 1   
    44    25    26 1   
    45    25    44 1   
    46    25    45 1   
    47    26    27 1   
    48    27    28 1   
    49    27    46 1   
    50    27    47 1   
    51    28    48 1   
    52    28    49 1   
    53    29    30 ar  
    54    29    50 1   
    55    30    51 1   
@<TRIPOS>SUBSTRUCTURE
     1 2W1         1 TEMP              0 ****  ****    0 ROOT
