@<TRIPOS>MOLECULE
2W1
   51    55     1     0     0
SMALL
No Charge or Current Charge


@<TRIPOS>ATOM
      1 O01         -3.0080    -3.0740     0.5350 o          1 2W1      -0.539100
      2 C02         -2.4840    -1.9690     0.3940 c          1 2W1       0.543400
      3 C03         -3.1970    -0.8410    -0.3140 cc         1 2W1       0.337800
      4 N04         -4.5080    -0.9200    -0.8080 na         1 2W1      -0.279600
      5 C05         -4.8030     0.2640    -1.4090 ca         1 2W1      -0.072200
      6 C06         -5.9760     0.6880    -2.0450 ca         1 2W1      -0.115000
      7 C07         -5.9860     1.9910    -2.5850 ca         1 2W1      -0.085000
      8 C08         -4.8400     2.8170    -2.4750 ca         1 2W1      -0.136000
      9 C09         -3.6780     2.3440    -1.8230 ca         1 2W1      -0.042000
     10 C10         -3.6950     1.0450    -1.2940 ca         1 2W1       0.057400
     11 N11         -2.6780     0.3780    -0.6220 nd         1 2W1      -0.548100
     12 C12         -1.0930    -1.7320     0.9590 ca         1 2W1      -0.187600
     13 C13         -0.6980    -0.4910     1.5110 ca         1 2W1      -0.026000
     14 C14          0.5970    -0.3200     2.0300 ca         1 2W1      -0.155000
     15 C15          1.5140    -1.3880     2.0100 ca         1 2W1       0.173100
     16 O16          2.7990    -1.2480     2.4800 os         1 2W1      -0.375400
     17 C17          3.4250    -0.0280     2.5290 ca         1 2W1       0.571300
     18 N18          3.6260     0.4900     3.7600 nb         1 2W1      -0.720000
     19 C19          4.2190     1.6980     3.8530 ca         1 2W1       0.368900
     20 C20          4.6300     2.4310     2.7320 ca         1 2W1      -0.185000
     21 C21          4.4360     1.8950     1.4510 ca         1 2W1      -0.055000
     22 C22          3.8300     0.6280     1.3320 ca         1 2W1      -0.120300
     23 C23          3.6270     0.0030    -0.0660 c6         1 2W1      -0.006400
     24 C24          4.9520    -0.1010    -0.8750 c6         1 2W1      -0.107900
     25 C25          4.6840    -0.6900    -2.2810 c6         1 2W1       0.154600
     26 O26          3.6950     0.1100    -2.9670 os         1 2W1      -0.451000
     27 C27          2.4130     0.1520    -2.3030 c6         1 2W1       0.154600
     28 C28          2.5680     0.7780    -0.8970 c6         1 2W1      -0.107900
     29 C29          1.1190    -2.6310     1.4990 ca         1 2W1      -0.155000
     30 C30         -0.1760    -2.8070     0.9830 ca         1 2W1      -0.026000
     31 H1          -5.1120    -1.7280    -0.7280 hn         1 2W1       0.376000
     32 H2          -6.8460     0.0400    -2.1220 ha         1 2W1       0.121000
     33 H3          -6.8760     2.3630    -3.0890 ha         1 2W1       0.114000
     34 H4          -4.8530     3.8200    -2.8940 ha         1 2W1       0.116000
     35 H5          -2.7930     2.9690    -1.7330 ha         1 2W1       0.129000
     36 H7          -1.3910     0.3450     1.5690 ha         1 2W1       0.139000
     37 H8           0.8760     0.6430     2.4500 ha         1 2W1       0.131000
     38 H9           4.3650     2.0930     4.8580 h4         1 2W1       0.025100
     39 H10          5.0970     3.4040     2.8610 ha         1 2W1       0.130000
     40 H11          4.7510     2.4560     0.5740 ha         1 2W1       0.125000
     41 H12          3.2630    -1.0270     0.0450 hc         1 2W1       0.069700
     42 H13          5.4220     0.8840    -0.9860 hc         1 2W1       0.052450
     43 H14          5.6710    -0.7350    -0.3390 hc         1 2W1       0.052450
     44 H15          5.6120    -0.6940    -2.8700 h1         1 2W1       0.045450
     45 H16          4.3230    -1.7260    -2.2020 h1         1 2W1       0.045450
     46 H17          1.7160     0.7510    -2.9070 h1         1 2W1       0.045450
     47 H18          2.0080    -0.8680    -2.2260 h1         1 2W1       0.045450
     48 H19          1.5990     0.7690    -0.3820 hc         1 2W1       0.052450
     49 H20          2.8590     1.8320    -0.9990 hc         1 2W1       0.052450
     50 H21          1.8220    -3.4600     1.4950 ha         1 2W1       0.131000
     51 H22         -0.4600    -3.7800     0.5850 ha         1 2W1       0.139000
@<TRIPOS>BOND
     1     1     2 2   
     2     2     3 1   
     3     2    12 1   
     4     3     4 1   
     5     3    11 2   
     6     4     5 1   
     7     4    31 1   
     8     5     6 ar  
     9     5    10 ar  
    10     6     7 ar  
    11     6    32 1   
    12     7     8 ar  
    13     7    33 1   
    14     8     9 ar  
    15     8    34 1   
    16     9    10 ar  
    17     9    35 1   
    18    10    11 1   
    19    12    13 ar  
    20    12    30 ar  
    21    13    14 ar  
    22    13    36 1   
    23    14    15 ar  
    24    14    37 1   
    25    15    16 1   
    26    15    29 ar  
    27    16    17 1   
    28    17    18 ar  
    29    17    22 ar  
    30    18    19 ar  
    31    19    20 ar  
    32    19    38 1   
    33    20    21 ar  
    34    20    39 1   
    35    21    22 ar  
    36    21    40 1   
    37    22    23 1   
    38    23    24 1   
    39    23    28 1   
    40    23    41 1   
    41    24    25 1   
    42    24    42 1   
    43    24    43 1   
    44    25    26 1   
    45    25    44 1   
    46    25    45 1   
    47    26    27 1   
    48    27    28 1   
    49    27    46 1   
    50    27    47 1   
    51    28    48 1   
    52    28    49 1   
    53    29    30 ar  
    54    29    50 1   
    55    30    51 1   
@<TRIPOS>SUBSTRUCTURE
     1 2W1         1 TEMP              0 ****  ****    0 ROOT
