@<TRIPOS>MOLECULE
2W3
   63    66     1     0     0
SMALL
No Charge or Current Charge


@<TRIPOS>ATOM
      1 C1          -4.3250     3.2350    -2.8520 c3         1 2W3      -0.086100
      2 C2          -2.8360     2.8650    -3.0060 c3         1 2W3      -0.134700
      3 C3          -2.2390     2.3190    -1.7190 ca         1 2W3       0.137300
      4 N6          -1.1210     1.4030     0.6280 nb         1 2W3      -0.210000
      5 C7          -0.9980     2.6730     0.1790 ca         1 2W3       0.166300
      6 C9          -0.1880     3.6590     1.0410 c6         1 2W3      -0.092000
      7 C11         -0.9940     4.1400     2.2790 c6         1 2W3      -0.070400
      8 C12         -0.1880     5.1650     3.1180 c6         1 2W3      -0.075400
      9 C13          1.1770     4.5860     3.5670 c6         1 2W3      -0.076400
     10 C14          2.0130     4.0990     2.3570 c6         1 2W3      -0.068400
     11 C15          1.2000     3.1010     1.4890 c6         1 2W3      -0.131700
     12 C21          1.7560    -0.4310    -1.3820 ca         1 2W3      -0.110300
     13 C22          0.9910     0.2260    -2.3660 ca         1 2W3      -0.089000
     14 C24         -0.2720    -1.8180    -2.7690 ca         1 2W3       0.112000
     15 C32         -1.1920    -2.4660     1.9280 c          1 2W3       0.587200
     16 C34         -2.0390    -3.4320     1.2280 cc         1 2W3      -0.388400
     17 C35         -2.7790    -3.0150     0.1400 cd         1 2W3       0.452700
     18 C4          -2.4310     0.9810    -1.3340 ca         1 2W3      -0.159000
     19 C5          -1.8360     0.5340    -0.1310 ca         1 2W3       0.063700
     20 N8          -1.5230     3.1700    -0.9600 nb         1 2W3      -0.167000
     21 C17          2.0130     2.4910     0.3290 c          1 2W3       0.605100
     22 O18          2.3890     3.1590    -0.6240 o          1 2W3      -0.610100
     23 N19          2.2610     1.1400     0.4250 ns         1 2W3      -0.502900
     24 C23         -0.0170    -0.4670    -3.0580 ca         1 2W3      -0.113000
     25 C25          0.4860    -2.4790    -1.7810 ca         1 2W3       0.111000
     26 C26          1.4940    -1.7840    -1.0890 ca         1 2W3      -0.086000
     27 Cl7          0.2030    -4.1760    -1.3960 cl         1 2W3      -0.157000
     28 Cl8         -1.5440    -2.6570    -3.6560 cl         1 2W3      -0.159000
     29 C29         -1.9760    -0.8710     0.3170 cc         1 2W3       0.492900
     30 N30         -1.2420    -1.2340     1.4010 ns         1 2W3      -0.379400
     31 N36         -2.7570    -1.7250    -0.3370 nd         1 2W3      -0.745300
     32 O37         -3.5950    -3.7320    -0.6140 oh         1 2W3      -0.445100
     33 C38         -2.1080    -4.8470     1.6670 c          1 2W3       0.641300
     34 O39         -2.7890    -5.7110     1.1450 o          1 2W3      -0.611100
     35 N40         -1.3630    -5.2120     2.7240 nt         1 2W3      -0.606000
     36 H1          -4.9160     2.3560    -2.5670 hc         1 2W3       0.043367
     37 H2          -4.4550     4.0030    -2.0810 hc         1 2W3       0.043367
     38 H3          -4.7240     3.6250    -3.7960 hc         1 2W3       0.043367
     39 H4          -2.7340     2.1220    -3.8070 hc         1 2W3       0.063200
     40 H5          -2.2820     3.7520    -3.3400 hc         1 2W3       0.063200
     41 H6           0.0150     4.5470     0.4230 hc         1 2W3       0.099700
     42 H7          -1.9410     4.5940     1.9540 hc         1 2W3       0.050700
     43 H8          -1.2640     3.2800     2.9090 hc         1 2W3       0.050700
     44 H9          -0.0260     6.0790     2.5290 hc         1 2W3       0.046200
     45 H10         -0.7720     5.4640     3.9990 hc         1 2W3       0.046200
     46 H11          1.7400     5.3470     4.1260 hc         1 2W3       0.044200
     47 H12          1.0110     3.7500     4.2620 hc         1 2W3       0.044200
     48 H13          2.3160     4.9600     1.7460 hc         1 2W3       0.053200
     49 H14          2.9390     3.6250     2.7110 hc         1 2W3       0.053200
     50 H15          0.9870     2.2580     2.1620 hc         1 2W3       0.064700
     51 H16          3.5520    -0.3880    -0.1840 h1         1 2W3       0.069700
     52 H17          3.4110     0.9530    -1.3330 h1         1 2W3       0.069700
     53 H18          1.1780     1.2740    -2.5930 ha         1 2W3       0.140000
     54 H20         -3.0110     0.3100    -1.9610 ha         1 2W3       0.160000
     55 H21          1.9300     0.6740     1.2600 hn         1 2W3       0.316500
     56 H22         -0.6030     0.0440    -3.8180 ha         1 2W3       0.133000
     57 H23          2.0730    -2.3020    -0.3290 ha         1 2W3       0.135000
     58 H24         -0.6800    -0.5350     1.8610 hn         1 2W3       0.359500
     59 H25         -1.3890    -6.1670     3.0460 hn         1 2W3       0.324500
     60 H26         -0.7860    -4.5190     3.1830 hn         1 2W3       0.324500
     61 H19         -3.8870    -3.0630    -1.2620 ho         1 2W3       0.487000
     62 O33         -0.4840    -2.6810     2.8980 o          1 2W3      -0.572000
     63 C20          2.8450     0.3220    -0.6340 c3         1 2W3       0.148300
@<TRIPOS>BOND
     1     1     2 1   
     2     1    36 1   
     3     1    37 1   
     4     1    38 1   
     5     2     3 1   
     6     2    39 1   
     7     2    40 1   
     8     3    18 ar  
     9     3    20 ar  
    10     4     5 ar  
    11     4    19 ar  
    12     5     6 1   
    13     5    20 ar  
    14     6     7 1   
    15     6    11 1   
    16     6    41 1   
    17     7     8 1   
    18     7    42 1   
    19     7    43 1   
    20     8     9 1   
    21     8    44 1   
    22     8    45 1   
    23     9    10 1   
    24     9    46 1   
    25     9    47 1   
    26    10    11 1   
    27    10    48 1   
    28    10    49 1   
    29    11    21 1   
    30    11    50 1   
    31    12    13 ar  
    32    12    26 ar  
    33    12    63 1   
    34    13    24 ar  
    35    13    53 1   
    36    14    24 ar  
    37    14    25 ar  
    38    14    28 1   
    39    15    16 1   
    40    15    30 1   
    41    15    62 2   
    42    16    17 2   
    43    16    33 1   
    44    17    31 1   
    45    17    32 1   
    46    18    19 ar  
    47    18    54 1   
    48    19    29 1   
    49    21    22 2   
    50    21    23 1   
    51    23    55 1   
    52    23    63 1   
    53    24    56 1   
    54    25    26 ar  
    55    25    27 1   
    56    26    57 1   
    57    29    30 1   
    58    29    31 2   
    59    30    58 1   
    60    32    61 1   
    61    33    34 2   
    62    33    35 1   
    63    35    59 1   
    64    35    60 1   
    65    51    63 1   
    66    52    63 1   
@<TRIPOS>SUBSTRUCTURE
     1 2W3         1 TEMP              0 ****  ****    0 ROOT
