@<TRIPOS>MOLECULE
2W3
   63    66     1     0     0
SMALL
abcg2


@<TRIPOS>ATOM
      1 C1          -4.5810     4.1610    -2.0070 c3         1 2W3      -0.086100
      2 C2          -3.5330     3.2790    -2.6830 c3         1 2W3      -0.134700
      3 C3          -2.6700     2.5890    -1.6730 ca         1 2W3       0.137300
      4 N6          -1.0970     1.4720     0.2360 nb         1 2W3      -0.210000
      5 C7          -1.0880     2.7680    -0.0350 ca         1 2W3       0.166300
      6 C9          -0.2060     3.6700     0.7830 c6         1 2W3      -0.092000
      7 C11         -1.0480     4.4270     1.8190 c6         1 2W3      -0.070400
      8 C12         -0.1840     5.3870     2.6270 c6         1 2W3      -0.075400
      9 C13          0.9870     4.6660     3.2850 c6         1 2W3      -0.076400
     10 C14          1.8150     3.8980     2.2620 c6         1 2W3      -0.068400
     11 C15          0.9380     2.9210     1.4690 c6         1 2W3      -0.131700
     12 C21          2.0200    -0.8610    -0.8090 ca         1 2W3      -0.110300
     13 C22          1.1610    -0.4000    -1.8070 ca         1 2W3      -0.089000
     14 C24          0.2640    -2.6070    -2.0960 ca         1 2W3       0.112000
     15 C32         -0.9440    -2.4230     1.2710 c          1 2W3       0.587200
     16 C34         -1.8710    -3.3460     0.6660 cc         1 2W3      -0.388400
     17 C35         -2.7430    -2.8330    -0.2870 cd         1 2W3       0.452700
     18 C4          -2.7470     1.2140    -1.4520 ca         1 2W3      -0.159000
     19 C5          -1.9220     0.7090    -0.4700 ca         1 2W3       0.063700
     20 N8          -1.8420     3.3460    -0.9640 nb         1 2W3      -0.167000
     21 C17          1.7660     2.1850     0.4350 c          1 2W3       0.605100
     22 O18          2.0260     2.6830    -0.6520 o          1 2W3      -0.610100
     23 N19          2.2060     0.9690     0.8030 ns         1 2W3      -0.502900
     24 C23          0.2890    -1.2630    -2.4430 ca         1 2W3      -0.113000
     25 C25          1.1230    -3.0790    -1.1130 ca         1 2W3       0.111000
     26 C26          1.9920    -2.2060    -0.4720 ca         1 2W3      -0.086000
     27 CL7          1.1140    -4.7390    -0.6630 cl         1 2W3      -0.157000
     28 CL8         -0.8290    -3.6680    -2.8950 cl         1 2W3      -0.159000
     29 C29         -1.9200    -0.7290    -0.1200 cc         1 2W3       0.492900
     30 N30         -1.0420    -1.1190     0.8010 ns         1 2W3      -0.379400
     31 N36         -2.7600    -1.5400    -0.6770 nd         1 2W3      -0.745300
     32 O37         -3.6470    -3.5820    -0.8760 oh         1 2W3      -0.445100
     33 C38         -1.9050    -4.7870     1.0470 c          1 2W3       0.641300
     34 O39         -2.6270    -5.5910     0.4700 o          1 2W3      -0.611100
     35 N40         -1.1250    -5.1500     2.0770 nt         1 2W3      -0.606000
     36 H1          -5.2570     3.5680    -1.3910 hc         1 2W3       0.043367
     37 H2          -4.1110     4.9090    -1.3690 hc         1 2W3       0.043367
     38 H3          -5.1780     4.6820    -2.7540 hc         1 2W3       0.043367
     39 H4          -4.0210     2.5400    -3.3200 hc         1 2W3       0.063200
     40 H5          -2.8950     3.8910    -3.3250 hc         1 2W3       0.063200
     41 H6           0.2210     4.4080     0.0980 hc         1 2W3       0.099700
     42 H7          -1.8470     4.9720     1.3110 hc         1 2W3       0.050700
     43 H8          -1.5300     3.7070     2.4900 hc         1 2W3       0.050700
     44 H9           0.1960     6.1740     1.9670 hc         1 2W3       0.046200
     45 H10         -0.7940     5.8840     3.3840 hc         1 2W3       0.046200
     46 H11          1.6230     5.3800     3.8130 hc         1 2W3       0.044200
     47 H12          0.6070     3.9700     4.0400 hc         1 2W3       0.044200
     48 H13          2.2930     4.5990     1.5710 hc         1 2W3       0.053200
     49 H14          2.6170     3.3490     2.7620 hc         1 2W3       0.053200
     50 H15          0.5090     2.2000     2.1720 hc         1 2W3       0.064700
     51 H16          3.6610    -0.4730     0.5160 h1         1 2W3       0.069700
     52 H17          3.5030     0.6910    -0.7870 h1         1 2W3       0.069700
     53 H18          1.1730     0.6430    -2.0950 ha         1 2W3       0.140000
     54 H20         -3.4150     0.5810    -2.0160 ha         1 2W3       0.160000
     55 H21          1.9350     0.6090     1.7040 hn         1 2W3       0.316500
     56 H22         -0.3730    -0.8980    -3.2170 ha         1 2W3       0.133000
     57 H23          2.6470    -2.5880     0.3000 ha         1 2W3       0.135000
     58 H24         -0.4320    -0.4120     1.1990 hn         1 2W3       0.359500
     59 H25         -1.0620    -6.1270     2.3090 hn         1 2W3       0.324500
     60 H26         -0.4530    -4.5080     2.4680 hn         1 2W3       0.324500
     61 H19         -4.1490    -3.0220    -1.4860 ho         1 2W3       0.487000
     62 O33         -0.1050    -2.6600     2.1320 o          1 2W3      -0.572000
     63 C20          2.9390     0.0870    -0.0780 c3         1 2W3       0.148300
@<TRIPOS>BOND
     1     1     2 1   
     2     1    36 1   
     3     1    37 1   
     4     1    38 1   
     5     2     3 1   
     6     2    39 1   
     7     2    40 1   
     8     3    18 ar  
     9     3    20 ar  
    10     4     5 ar  
    11     4    19 ar  
    12     5     6 1   
    13     5    20 ar  
    14     6     7 1   
    15     6    11 1   
    16     6    41 1   
    17     7     8 1   
    18     7    42 1   
    19     7    43 1   
    20     8     9 1   
    21     8    44 1   
    22     8    45 1   
    23     9    10 1   
    24     9    46 1   
    25     9    47 1   
    26    10    11 1   
    27    10    48 1   
    28    10    49 1   
    29    11    21 1   
    30    11    50 1   
    31    12    13 ar  
    32    12    26 ar  
    33    12    63 1   
    34    13    24 ar  
    35    13    53 1   
    36    14    24 ar  
    37    14    25 ar  
    38    14    28 1   
    39    15    16 1   
    40    15    30 1   
    41    15    62 2   
    42    16    17 2   
    43    16    33 1   
    44    17    31 1   
    45    17    32 1   
    46    18    19 ar  
    47    18    54 1   
    48    19    29 1   
    49    21    22 2   
    50    21    23 1   
    51    23    55 1   
    52    23    63 1   
    53    24    56 1   
    54    25    26 ar  
    55    25    27 1   
    56    26    57 1   
    57    29    30 1   
    58    29    31 2   
    59    30    58 1   
    60    32    61 1   
    61    33    34 2   
    62    33    35 1   
    63    35    59 1   
    64    35    60 1   
    65    51    63 1   
    66    52    63 1   
@<TRIPOS>SUBSTRUCTURE
     1 2W3         1 TEMP              0 ****  ****    0 ROOT
