@<TRIPOS>MOLECULE
2W4
   56    61     1     0     0
SMALL
abcg2


@<TRIPOS>ATOM
      1 N1           0.3410     2.7760     0.0270 n          1 2W4      -0.258500
      2 C10          0.3810     4.1600    -0.0590 c          1 2W4       0.569000
      3 C13         -2.3870     0.5170    -1.0190 ca         1 2W4      -0.096000
      4 C15         -2.8450     1.3230     1.1920 ca         1 2W4      -0.096000
      5 C17         -4.4780    -0.2380     0.1240 cp         1 2W4      -0.063000
      6 C20         -6.8460    -1.6370     0.2040 ca         1 2W4       0.062100
      7 C21         -7.4610    -3.6020    -0.4900 cc         1 2W4      -0.067900
      8 C22         -6.1620    -3.5140    -0.8380 cd         1 2W4      -0.235200
      9 C24         -4.5280    -1.5100    -0.4340 ca         1 2W4      -0.046000
     10 O01          5.3860    -3.0290     1.0500 o          1 2W4      -0.618100
     11 C02          7.2020    -2.2300    -0.2510 cx         1 2W4      -0.239700
     12 C03          8.2370    -2.9990     0.5280 cx         1 2W4      -0.099400
     13 C04          7.6780    -3.5840    -0.7170 cx         1 2W4      -0.099400
     14 N01          5.1010    -1.0600     0.0140 n          1 2W4      -0.414800
     15 C05          5.4880     0.0260    -0.8870 c5         1 2W4       0.107000
     16 C06          4.1970     0.8140    -1.0620 c5         1 2W4      -0.090400
     17 C07          3.4690     0.6040     0.2630 c5         1 2W4      -0.076700
     18 C08          1.9730     0.8710     0.2260 c3         1 2W4      -0.083700
     19 C09          1.6330     2.3100     0.0850 cc         1 2W4       0.377900
     20 N02          2.4720     3.2850     0.0400 n2         1 2W4      -0.490300
     21 N03          1.7120     4.4060    -0.0490 ns         1 2W4      -0.373400
     22 O02         -0.5590     4.9300    -0.1250 o          1 2W4      -0.547000
     23 C11         -0.8540     2.0190     0.0520 ca         1 2W4       0.050600
     24 C12         -1.2150     1.2540    -1.0480 ca         1 2W4      -0.096500
     25 C14         -3.2230     0.5410     0.0990 cp         1 2W4      -0.017000
     26 C16         -1.6700     2.0550     1.1730 ca         1 2W4      -0.096500
     27 C18         -5.6310     0.3120     0.7180 ca         1 2W4      -0.079000
     28 C19         -6.8310    -0.3730     0.7680 ca         1 2W4      -0.103000
     29 O1          -7.8980    -2.4800     0.1420 os         1 2W4      -0.170200
     30 C23         -5.7260    -2.2190    -0.3930 ca         1 2W4      -0.114800
     31 C1           3.7780    -0.8560     0.5850 c5         1 2W4       0.102000
     32 H1          -2.6660    -0.0600    -1.8910 ha         1 2W4       0.122500
     33 H2          -3.4620     1.3450     2.0800 ha         1 2W4       0.122500
     34 H3          -8.1930    -4.3820    -0.6250 h4         1 2W4       0.240000
     35 H4          -5.5860    -4.2690    -1.3480 ha         1 2W4       0.215000
     36 H5          -3.6450    -1.9560    -0.8750 ha         1 2W4       0.121000
     37 H6           7.5690    -1.3800    -0.8100 hc         1 2W4       0.084700
     38 H7           9.2460    -2.6100     0.5070 hc         1 2W4       0.080950
     39 H8           7.9310    -3.4260     1.4730 hc         1 2W4       0.080950
     40 H9           6.9840    -4.4100    -0.6240 hc         1 2W4       0.080950
     41 H10          8.2960    -3.6060    -1.6040 hc         1 2W4       0.080950
     42 H11          6.2700     0.6450    -0.4370 h1         1 2W4       0.047200
     43 H12          5.8650    -0.3540    -1.8370 h1         1 2W4       0.047200
     44 H13          4.3810     1.8610    -1.2920 hc         1 2W4       0.061200
     45 H14          3.6070     0.3880    -1.8790 hc         1 2W4       0.061200
     46 H15          3.9310     1.2380     1.0270 hc         1 2W4       0.075700
     47 H16          1.5230     0.3040    -0.5950 hc         1 2W4       0.068700
     48 H17          1.5010     0.4980     1.1410 hc         1 2W4       0.068700
     49 H18          2.1460     5.3130    -0.1040 hn         1 2W4       0.492000
     50 H19         -0.5880     1.2430    -1.9310 ha         1 2W4       0.127000
     51 H20         -1.3820     2.6430     2.0360 ha         1 2W4       0.127000
     52 H21         -5.5890     1.3120     1.1300 ha         1 2W4       0.121000
     53 H22         -7.7110     0.0650     1.2190 ha         1 2W4       0.134000
     54 H23          3.0450    -1.5260     0.1210 h1         1 2W4       0.056200
     55 H24          3.7750    -1.0550     1.6570 h1         1 2W4       0.056200
     56 C01          5.8300    -2.1440     0.3220 c          1 2W4       0.638100
@<TRIPOS>BOND
     1     1     2 1   
     2     1    19 1   
     3     1    23 1   
     4     2    21 1   
     5     2    22 2   
     6     3    24 ar  
     7     3    25 ar  
     8     3    32 1   
     9     4    25 ar  
    10     4    26 ar  
    11     4    33 1   
    12     5     9 ar  
    13     5    25 1   
    14     5    27 ar  
    15     6    28 ar  
    16     6    29 1   
    17     6    30 ar  
    18     7     8 2   
    19     7    29 1   
    20     7    34 1   
    21     8    30 1   
    22     8    35 1   
    23     9    30 ar  
    24     9    36 1   
    25    10    56 2   
    26    11    12 1   
    27    11    13 1   
    28    11    37 1   
    29    11    56 1   
    30    12    13 1   
    31    12    38 1   
    32    12    39 1   
    33    13    40 1   
    34    13    41 1   
    35    14    15 1   
    36    14    31 1   
    37    14    56 1   
    38    15    16 1   
    39    15    42 1   
    40    15    43 1   
    41    16    17 1   
    42    16    44 1   
    43    16    45 1   
    44    17    18 1   
    45    17    31 1   
    46    17    46 1   
    47    18    19 1   
    48    18    47 1   
    49    18    48 1   
    50    19    20 2   
    51    20    21 1   
    52    21    49 1   
    53    23    24 ar  
    54    23    26 ar  
    55    24    50 1   
    56    26    51 1   
    57    27    28 ar  
    58    27    52 1   
    59    28    53 1   
    60    31    54 1   
    61    31    55 1   
@<TRIPOS>SUBSTRUCTURE
     1 2W4         1 TEMP              0 ****  ****    0 ROOT
