@<TRIPOS>MOLECULE
2W4
   56    61     1     0     0
SMALL
No Charge or Current Charge


@<TRIPOS>ATOM
      1 N1           0.3580     2.8560    -0.1020 n          1 2W4      -0.258500
      2 C10          0.4810     4.2310     0.0560 c          1 2W4       0.569000
      3 C13         -2.3200     0.3040    -0.8800 ca         1 2W4      -0.096000
      4 C15         -3.0390     1.6690     0.9850 ca         1 2W4      -0.096000
      5 C17         -4.5660    -0.1970     0.1920 cp         1 2W4      -0.063000
      6 C20         -6.9550    -1.6850     0.3790 ca         1 2W4       0.062100
      7 C21         -7.4780    -3.7970     0.0550 cc         1 2W4      -0.067900
      8 C22         -6.1250    -3.6560    -0.1960 cd         1 2W4      -0.235200
      9 C24         -4.5740    -1.5930    -0.0940 ca         1 2W4      -0.046000
     10 O01          5.1120    -3.3550     0.9050 o          1 2W4      -0.618100
     11 C02          7.2390    -2.3150     0.4770 cx         1 2W4      -0.239700
     12 C03          8.0220    -3.5940     0.2460 cx         1 2W4      -0.099400
     13 C04          7.9390    -2.5560    -0.8460 cx         1 2W4      -0.099400
     14 N01          5.0610    -1.2010     0.0920 n          1 2W4      -0.414800
     15 C05          5.7430     0.0270    -0.3690 c5         1 2W4       0.107000
     16 C06          4.5660     0.8140    -0.9990 c5         1 2W4      -0.090400
     17 C07          3.3920     0.4560    -0.0430 c5         1 2W4      -0.076700
     18 C08          1.9760     0.8660    -0.5370 c3         1 2W4      -0.083700
     19 C09          1.6190     2.3360    -0.4180 cc         1 2W4       0.377900
     20 N02          2.4980     3.3040    -0.4530 n2         1 2W4      -0.490300
     21 N03          1.8030     4.4600    -0.1650 ns         1 2W4      -0.373400
     22 O02         -0.3820     5.0610     0.2950 o          1 2W4      -0.547000
     23 C11         -0.8940     2.1370    -0.1020 ca         1 2W4       0.050600
     24 C12         -1.1320     1.0500    -0.9690 ca         1 2W4      -0.096500
     25 C14         -3.3020     0.5990     0.0960 cp         1 2W4      -0.017000
     26 C16         -1.8520     2.4160     0.8950 ca         1 2W4      -0.096500
     27 C18         -5.7980     0.4210     0.5740 ca         1 2W4      -0.079000
     28 C19         -6.9990    -0.3170     0.6690 ca         1 2W4      -0.103000
     29 O1          -8.0220    -2.5620     0.4190 os         1 2W4      -0.170200
     30 C23         -5.7840    -2.2870     0.0120 ca         1 2W4      -0.114800
     31 C1           3.5890    -1.0800     0.0940 c5         1 2W4       0.102000
     32 H1          -2.4850    -0.5030    -1.5890 ha         1 2W4       0.122500
     33 H2          -3.7510     1.9110     1.7700 ha         1 2W4       0.122500
     34 H3          -8.1430    -4.6560     0.0170 h4         1 2W4       0.240000
     35 H4          -5.4500    -4.4540    -0.4980 ha         1 2W4       0.215000
     36 H5          -3.6650    -2.1170    -0.3770 ha         1 2W4       0.121000
     37 H6           7.6870    -1.5900     1.1500 hc         1 2W4       0.084700
     38 H7           8.9710    -3.7090     0.7640 hc         1 2W4       0.080950
     39 H8           7.4720    -4.5220     0.1020 hc         1 2W4       0.080950
     40 H9           7.3270    -2.7840    -1.7160 hc         1 2W4       0.080950
     41 H10          8.8320    -1.9730    -1.0620 hc         1 2W4       0.080950
     42 H11          6.1820     0.5670     0.4810 h1         1 2W4       0.047200
     43 H12          6.5310    -0.1730    -1.1060 h1         1 2W4       0.047200
     44 H13          4.7760     1.8880    -1.0490 hc         1 2W4       0.061200
     45 H14          4.3690     0.4710    -2.0220 hc         1 2W4       0.061200
     46 H15          3.5400     0.9300     0.9360 hc         1 2W4       0.075700
     47 H16          1.8550     0.5530    -1.5810 hc         1 2W4       0.068700
     48 H17          1.2460     0.2890     0.0420 hc         1 2W4       0.068700
     49 H18          2.1720     5.4130    -0.1370 hn         1 2W4       0.492000
     50 H19         -0.4230     0.8020    -1.7520 ha         1 2W4       0.127000
     51 H20         -1.6740     3.2070     1.6180 ha         1 2W4       0.127000
     52 H21         -5.8250     1.4870     0.7850 ha         1 2W4       0.121000
     53 H22         -7.9310     0.1610     0.9580 ha         1 2W4       0.134000
     54 H23          3.1590    -1.6240    -0.7580 h1         1 2W4       0.056200
     55 H24          3.1390    -1.4690     1.0170 h1         1 2W4       0.056200
     56 C01          5.7230    -2.3680     0.5160 c          1 2W4       0.638100
@<TRIPOS>BOND
     1     1     2 1   
     2     1    19 1   
     3     1    23 1   
     4     2    21 1   
     5     2    22 2   
     6     3    24 ar  
     7     3    25 ar  
     8     3    32 1   
     9     4    25 ar  
    10     4    26 ar  
    11     4    33 1   
    12     5     9 ar  
    13     5    25 1   
    14     5    27 ar  
    15     6    28 ar  
    16     6    29 1   
    17     6    30 ar  
    18     7     8 2   
    19     7    29 1   
    20     7    34 1   
    21     8    30 1   
    22     8    35 1   
    23     9    30 ar  
    24     9    36 1   
    25    10    56 2   
    26    11    12 1   
    27    11    13 1   
    28    11    37 1   
    29    11    56 1   
    30    12    13 1   
    31    12    38 1   
    32    12    39 1   
    33    13    40 1   
    34    13    41 1   
    35    14    15 1   
    36    14    31 1   
    37    14    56 1   
    38    15    16 1   
    39    15    42 1   
    40    15    43 1   
    41    16    17 1   
    42    16    44 1   
    43    16    45 1   
    44    17    18 1   
    45    17    31 1   
    46    17    46 1   
    47    18    19 1   
    48    18    47 1   
    49    18    48 1   
    50    19    20 2   
    51    20    21 1   
    52    21    49 1   
    53    23    24 ar  
    54    23    26 ar  
    55    24    50 1   
    56    26    51 1   
    57    27    28 ar  
    58    27    52 1   
    59    28    53 1   
    60    31    54 1   
    61    31    55 1   
@<TRIPOS>SUBSTRUCTURE
     1 2W4         1 TEMP              0 ****  ****    0 ROOT
