@<TRIPOS>MOLECULE
2W5
   51    53     1     0     0
SMALL
No Charge or Current Charge


@<TRIPOS>ATOM
      1 C1          -0.5970    -0.2790    -3.5550 c3         1 2W5       0.160900
      2 C3           0.8410     0.8020    -1.8890 ca         1 2W5       0.376800
      3 C7           3.4980     3.0420     1.4930 c3         1 2W5       0.160900
      4 C9           2.2330    -0.3870    -0.5020 ca         1 2W5       0.224300
      5 C11          2.8050    -1.7450    -0.0570 c6         1 2W5      -0.092000
      6 C13          3.7570    -2.3540    -1.1260 c6         1 2W5      -0.069400
      7 C14          4.3350    -3.7160    -0.6630 c6         1 2W5      -0.075400
      8 C15          3.2080    -4.7250    -0.3280 c6         1 2W5      -0.075400
      9 C16          2.2440    -4.1610     0.7450 c6         1 2W5      -0.070400
     10 C19          0.6590    -2.1930     1.3090 c          1 2W5       0.610100
     11 C22         -1.6700    -1.2800     1.4940 c3         1 2W5       0.147300
     12 C24         -2.1030     0.8030     0.1030 ca         1 2W5      -0.089000
     13 C30         -0.8300     1.0230     2.1650 ca         1 2W5      -0.090000
     14 O2          -0.0830     0.9000    -2.9040 os         1 2W5      -0.451800
     15 C4           1.2500     1.9830    -1.2640 ca         1 2W5      -0.279000
     16 C5           2.1780     1.8910    -0.2250 ca         1 2W5       0.376800
     17 O6           2.5710     3.0580     0.3890 os         1 2W5      -0.451800
     18 N8           2.6750     0.6990     0.1610 nb         1 2W5      -0.298500
     19 N10          1.3390    -0.3920    -1.5120 nb         1 2W5      -0.298500
     20 C17          1.6930    -2.7730     0.3220 c6         1 2W5      -0.124700
     21 O20          0.9530    -1.9010     2.4600 o          1 2W5      -0.608100
     22 N21         -0.6060    -2.0010     0.8020 ns         1 2W5      -0.503900
     23 C23         -1.5400     0.2170     1.2530 ca         1 2W5      -0.099300
     24 C25         -1.9620     2.1820    -0.1290 ca         1 2W5      -0.099000
     25 C26         -1.2560     2.9840     0.7830 ca         1 2W5       0.121000
     26 Cl7         -1.0890     4.7090     0.4570 cl         1 2W5      -0.168000
     27 C28         -0.6890     2.4020     1.9350 ca         1 2W5       0.115000
     28 Cl9          0.2000     3.3770     3.1060 cl         1 2W5      -0.168000
     29 H1           0.2110    -0.8460    -4.0340 h1         1 2W5       0.048367
     30 H2          -1.1040    -0.9340    -2.8340 h1         1 2W5       0.048367
     31 H3          -1.3230    -0.0010    -4.3300 h1         1 2W5       0.048367
     32 H4           3.1020     2.4490     2.3270 h1         1 2W5       0.048367
     33 H5           4.4620     2.6150     1.1880 h1         1 2W5       0.048367
     34 H6           3.6770     4.0620     1.8560 h1         1 2W5       0.048367
     35 H7           3.4040    -1.5740     0.8500 hc         1 2W5       0.094700
     36 H8           3.2200    -2.4880    -2.0750 hc         1 2W5       0.050200
     37 H9           4.5800    -1.6550    -1.3310 hc         1 2W5       0.050200
     38 H10          4.9820    -4.1300    -1.4480 hc         1 2W5       0.043700
     39 H11          4.9740    -3.5670     0.2190 hc         1 2W5       0.043700
     40 H12          2.6460    -4.9660    -1.2400 hc         1 2W5       0.041200
     41 H13          3.6460    -5.6690     0.0260 hc         1 2W5       0.041200
     42 H14          1.4150    -4.8640     0.9080 hc         1 2W5       0.050200
     43 H15          2.7720    -4.0730     1.7050 hc         1 2W5       0.050200
     44 H16         -2.6400    -1.6340     1.1190 h1         1 2W5       0.062700
     45 H17         -1.6280    -1.4980     2.5690 h1         1 2W5       0.062700
     46 H19         -0.3830     0.5800     3.0520 ha         1 2W5       0.133000
     47 H20          0.8520     2.9420    -1.5730 ha         1 2W5       0.158000
     48 H21          1.1300    -2.9610    -0.6040 hc         1 2W5       0.065700
     49 H22         -0.7560    -2.2690    -0.1620 hn         1 2W5       0.315500
     50 H23         -2.3940     2.6290    -1.0210 ha         1 2W5       0.134000
     51 H18         -2.6440     0.1890    -0.6140 ha         1 2W5       0.129000
@<TRIPOS>BOND
     1     1    14 1   
     2     1    29 1   
     3     1    30 1   
     4     1    31 1   
     5     2    14 1   
     6     2    15 ar  
     7     2    19 ar  
     8     3    17 1   
     9     3    32 1   
    10     3    33 1   
    11     3    34 1   
    12     4     5 1   
    13     4    18 ar  
    14     4    19 ar  
    15     5     6 1   
    16     5    20 1   
    17     5    35 1   
    18     6     7 1   
    19     6    36 1   
    20     6    37 1   
    21     7     8 1   
    22     7    38 1   
    23     7    39 1   
    24     8     9 1   
    25     8    40 1   
    26     8    41 1   
    27     9    20 1   
    28     9    42 1   
    29     9    43 1   
    30    10    20 1   
    31    10    21 2   
    32    10    22 1   
    33    11    22 1   
    34    11    23 1   
    35    11    44 1   
    36    11    45 1   
    37    12    23 ar  
    38    12    24 ar  
    39    12    51 1   
    40    13    23 ar  
    41    13    27 ar  
    42    13    46 1   
    43    15    16 ar  
    44    15    47 1   
    45    16    17 1   
    46    16    18 ar  
    47    20    48 1   
    48    22    49 1   
    49    24    25 ar  
    50    24    50 1   
    51    25    26 1   
    52    25    27 ar  
    53    27    28 1   
@<TRIPOS>SUBSTRUCTURE
     1 2W5         1 TEMP              0 ****  ****    0 ROOT
