@<TRIPOS>MOLECULE
2W5
   51    53     1     0     0
SMALL
bcc


@<TRIPOS>ATOM
      1 C1           0.8150     2.1880    -1.6810 c3         1 2W5       0.137700
      2 C3           2.8670     1.8620    -0.5560 ca         1 2W5       0.705100
      3 C7           6.8220     0.9620     1.8270 c3         1 2W5       0.137700
      4 C9           3.3520    -0.1970     0.2430 ca         1 2W5       0.750300
      5 C11          2.9970    -1.6510     0.3840 c6         1 2W5      -0.092000
      6 C13          3.9070    -2.5020    -0.5130 c6         1 2W5      -0.069400
      7 C14          3.6030    -3.9870    -0.3600 c6         1 2W5      -0.075400
      8 C15          2.1330    -4.2860    -0.6300 c6         1 2W5      -0.075400
      9 C16          1.2260    -3.4320     0.2480 c6         1 2W5      -0.070400
     10 C19          0.6150    -1.1330     0.9740 c          1 2W5       0.677100
     11 C22         -1.4870     0.1180     1.1050 c3         1 2W5       0.147300
     12 C24         -3.4690    -1.0190     0.0480 ca         1 2W5      -0.107000
     13 C30         -3.3150     1.3680    -0.0730 ca         1 2W5      -0.108000
     14 O2           2.0540     2.6920    -1.1950 os         1 2W5      -0.428600
     15 C4           4.0580     2.3690    -0.0610 ca         1 2W5      -0.427600
     16 C5           4.8560     1.4500     0.6100 ca         1 2W5       0.705100
     17 O6           6.0060     1.8800     1.1070 os         1 2W5      -0.428600
     18 N8           4.5100     0.1820     0.7700 nb         1 2W5      -0.824500
     19 N10          2.5160     0.5900    -0.4130 nb         1 2W5      -0.824500
     20 C17          1.5290    -1.9380     0.0720 c6         1 2W5      -0.124700
     21 O20          0.8550    -0.9640     2.1620 o          1 2W5      -0.608100
     22 N21         -0.5090    -0.6770     0.3950 ns         1 2W5      -0.570900
     23 C23         -2.7830     0.1570     0.3440 ca         1 2W5      -0.099300
     24 C25         -4.6630    -0.9830    -0.6470 ca         1 2W5      -0.117000
     25 C26         -5.1920     0.2330    -1.0590 ca         1 2W5       0.029400
     26 CL7         -6.6810     0.2630    -1.9230 cl         1 2W5      -0.076400
     27 C28         -4.5160     1.4100    -0.7690 ca         1 2W5       0.023400
     28 CL9         -5.1450     2.9320    -1.2700 cl         1 2W5      -0.076400
     29 H1           0.9610     1.4090    -2.4300 h1         1 2W5       0.048367
     30 H2           0.2020     1.7880    -0.8740 h1         1 2W5       0.048367
     31 H3           0.3070     3.0350    -2.1330 h1         1 2W5       0.048367
     32 H4           6.3220     0.5990     2.7250 h1         1 2W5       0.048367
     33 H5           7.1100     0.1080     1.2140 h1         1 2W5       0.048367
     34 H6           7.7120     1.5190     2.1100 h1         1 2W5       0.048367
     35 H7           3.1960    -1.9360     1.4230 hc         1 2W5       0.094700
     36 H8           3.7690    -2.2020    -1.5580 hc         1 2W5       0.050200
     37 H9           4.9510    -2.3020    -0.2620 hc         1 2W5       0.050200
     38 H10          4.2380    -4.5650    -1.0350 hc         1 2W5       0.043700
     39 H11          3.8570    -4.3060     0.6570 hc         1 2W5       0.043700
     40 H12          1.9080    -4.0920    -1.6840 hc         1 2W5       0.041200
     41 H13          1.9240    -5.3440    -0.4580 hc         1 2W5       0.041200
     42 H14          0.1780    -3.6240     0.0060 hc         1 2W5       0.050200
     43 H15          1.3640    -3.7090     1.2990 hc         1 2W5       0.050200
     44 H16         -1.6520    -0.3230     2.0900 h1         1 2W5       0.062700
     45 H17         -1.1220     1.1360     1.2730 h1         1 2W5       0.062700
     46 H19         -2.7970     2.2930     0.1430 ha         1 2W5       0.151000
     47 H20          4.3430     3.4050    -0.1820 ha         1 2W5       0.176000
     48 H21          1.3330    -1.6690    -0.9720 hc         1 2W5       0.065700
     49 H22         -0.5830    -0.7290    -0.6080 hn         1 2W5       0.315500
     50 H23         -5.1920    -1.9000    -0.8700 ha         1 2W5       0.152000
     51 H18         -3.0720    -1.9760     0.3620 ha         1 2W5       0.147000
@<TRIPOS>BOND
     1     1    14 1   
     2     1    29 1   
     3     1    30 1   
     4     1    31 1   
     5     2    14 1   
     6     2    15 ar  
     7     2    19 ar  
     8     3    17 1   
     9     3    32 1   
    10     3    33 1   
    11     3    34 1   
    12     4     5 1   
    13     4    18 ar  
    14     4    19 ar  
    15     5     6 1   
    16     5    20 1   
    17     5    35 1   
    18     6     7 1   
    19     6    36 1   
    20     6    37 1   
    21     7     8 1   
    22     7    38 1   
    23     7    39 1   
    24     8     9 1   
    25     8    40 1   
    26     8    41 1   
    27     9    20 1   
    28     9    42 1   
    29     9    43 1   
    30    10    20 1   
    31    10    21 2   
    32    10    22 1   
    33    11    22 1   
    34    11    23 1   
    35    11    44 1   
    36    11    45 1   
    37    12    23 ar  
    38    12    24 ar  
    39    12    51 1   
    40    13    23 ar  
    41    13    27 ar  
    42    13    46 1   
    43    15    16 ar  
    44    15    47 1   
    45    16    17 1   
    46    16    18 ar  
    47    20    48 1   
    48    22    49 1   
    49    24    25 ar  
    50    24    50 1   
    51    25    26 1   
    52    25    27 ar  
    53    27    28 1   
@<TRIPOS>SUBSTRUCTURE
     1 2W5         1 TEMP              0 ****  ****    0 ROOT
