@<TRIPOS>MOLECULE
2W7
   48    51     1     0     0
SMALL
No Charge or Current Charge


@<TRIPOS>ATOM
      1 S2          -6.0700    -1.7870     0.6210 sh         1 2W7      -0.210800
      2 C5          -5.5720    -0.1220     0.1940 ca         1 2W7      -0.024000
      3 C6          -6.5820     0.8590     0.2030 ca         1 2W7      -0.104000
      4 C10         -4.2290     0.2490    -0.1190 ca         1 2W7      -0.154600
      5 C7          -6.2970     2.1980    -0.0930 ca         1 2W7      -0.082000
      6 C8          -4.9860     2.5730    -0.4050 ca         1 2W7      -0.119000
      7 C9          -3.9630     1.6120    -0.4180 ca         1 2W7      -0.077000
      8 C11         -3.0890    -0.7620    -0.1510 c          1 2W7       0.614700
      9 O2          -3.2580    -1.9690    -0.2570 o          1 2W7      -0.624100
     10 N3          -1.8150    -0.2460    -0.0930 ns         1 2W7      -0.485900
     11 C12         -0.5740    -1.0510    -0.1390 c3         1 2W7       0.013000
     12 C13          0.6910    -0.1680    -0.0420 c          1 2W7       0.591100
     13 O3           0.6370     1.0520     0.0600 o          1 2W7      -0.614100
     14 N4           1.8790    -0.8720    -0.0820 ns         1 2W7      -0.496900
     15 C14          3.2490    -0.3350    -0.0140 c6         1 2W7       0.136400
     16 C18          3.5600     0.6190    -1.2120 c6         1 2W7      -0.081733
     17 C17          5.0340     1.1160    -1.1400 c6         1 2W7      -0.056033
     18 C19          5.2620     1.8640     0.2070 c6         1 2W7      -0.071400
     19 C23          4.9910     0.9000     1.4000 c6         1 2W7      -0.056033
     20 C24          3.5170     0.4020     1.3380 c6         1 2W7      -0.081733
     21 C25          5.9510    -0.3190     1.3070 c6         1 2W7      -0.071400
     22 C20          5.7130    -1.0670    -0.0350 c6         1 2W7      -0.056033
     23 C26          4.2330    -1.5460    -0.1000 c6         1 2W7      -0.081733
     24 C16          5.9940    -0.1040    -1.2230 c6         1 2W7      -0.071400
     25 H1          -4.9100    -2.3780     0.2350 hs         1 2W7       0.253800
     26 H6          -7.6040     0.5760     0.4480 ha         1 2W7       0.130000
     27 H7          -7.0910     2.9420    -0.0820 ha         1 2W7       0.118000
     28 H8          -4.7600     3.6110    -0.6420 ha         1 2W7       0.120000
     29 H9          -2.9650     1.9470    -0.6870 ha         1 2W7       0.119000
     30 H3          -1.7270     0.7580     0.0180 hn         1 2W7       0.350500
     31 H122        -0.5650    -1.7620     0.6970 h1         1 2W7       0.066700
     32 H121        -0.5340    -1.6130    -1.0800 h1         1 2W7       0.066700
     33 H4           1.7850    -1.8760    -0.1690 hn         1 2W7       0.313500
     34 HZ12         3.3830     0.1020    -2.1650 hc         1 2W7       0.051367
     35 HZ11         2.8860     1.4850    -1.2030 hc         1 2W7       0.051367
     36 HY1          5.2330     1.7980    -1.9780 hc         1 2W7       0.053033
     37 HX22         6.2910     2.2470     0.2560 hc         1 2W7       0.043200
     38 HX21         4.6030     2.7410     0.2700 hc         1 2W7       0.043200
     39 HY3          5.1610     1.4300     2.3470 hc         1 2W7       0.053033
     40 HZ21         2.8410     1.2590     1.4530 hc         1 2W7       0.051367
     41 HZ22         3.3100    -0.2680     2.1840 hc         1 2W7       0.051367
     42 HX31         6.9960     0.0140     1.3760 hc         1 2W7       0.043200
     43 HX32         5.7860    -0.9980     2.1550 hc         1 2W7       0.043200
     44 HY2          6.3850    -1.9350    -0.0970 hc         1 2W7       0.053033
     45 HZ32         4.0380    -2.2530     0.7180 hc         1 2W7       0.051367
     46 HZ31         4.0670    -2.1040    -1.0320 hc         1 2W7       0.051367
     47 HX12         5.8590    -0.6300    -2.1780 hc         1 2W7       0.043200
     48 HX11         7.0390     0.2330    -1.1990 hc         1 2W7       0.043200
@<TRIPOS>BOND
     1     1     2 1   
     2     1    25 1   
     3     2     3 ar  
     4     2     4 ar  
     5     3     5 ar  
     6     3    26 1   
     7     4     7 ar  
     8     4     8 1   
     9     5     6 ar  
    10     5    27 1   
    11     6     7 ar  
    12     6    28 1   
    13     7    29 1   
    14     8     9 2   
    15     8    10 1   
    16    10    11 1   
    17    10    30 1   
    18    11    12 1   
    19    11    31 1   
    20    11    32 1   
    21    12    13 2   
    22    12    14 1   
    23    14    15 1   
    24    14    33 1   
    25    15    16 1   
    26    15    20 1   
    27    15    23 1   
    28    16    17 1   
    29    16    34 1   
    30    16    35 1   
    31    17    18 1   
    32    17    24 1   
    33    17    36 1   
    34    18    19 1   
    35    18    37 1   
    36    18    38 1   
    37    19    20 1   
    38    19    21 1   
    39    19    39 1   
    40    20    40 1   
    41    20    41 1   
    42    21    22 1   
    43    21    42 1   
    44    21    43 1   
    45    22    23 1   
    46    22    24 1   
    47    22    44 1   
    48    23    45 1   
    49    23    46 1   
    50    24    47 1   
    51    24    48 1   
@<TRIPOS>SUBSTRUCTURE
     1 2W7         1 TEMP              0 ****  ****    0 ROOT
