@<TRIPOS>MOLECULE
2W7
   48    51     1     0     0
SMALL
abcg2


@<TRIPOS>ATOM
      1 S2          -5.5610    -1.2710     1.6490 sh         1 2W7      -0.210800
      2 C5          -5.2360     0.0650     0.5380 ca         1 2W7      -0.024000
      3 C6          -6.2170     1.0550     0.4950 ca         1 2W7      -0.104000
      4 C10         -4.0610     0.2350    -0.2080 ca         1 2W7      -0.154600
      5 C7          -6.0550     2.1860    -0.2880 ca         1 2W7      -0.082000
      6 C8          -4.9070     2.3460    -1.0510 ca         1 2W7      -0.119000
      7 C9          -3.9230     1.3730    -1.0030 ca         1 2W7      -0.077000
      8 C11         -2.9660    -0.7840    -0.2240 c          1 2W7       0.614700
      9 O2          -3.1850    -1.9850    -0.3430 o          1 2W7      -0.624100
     10 N3          -1.7310    -0.2830    -0.1170 ns         1 2W7      -0.485900
     11 C12         -0.5540    -1.1030    -0.1660 c3         1 2W7       0.013000
     12 C13          0.6790    -0.2180    -0.0170 c          1 2W7       0.591100
     13 O3           0.5700     0.9760     0.2270 o          1 2W7      -0.614100
     14 N4           1.8330    -0.8740    -0.1680 ns         1 2W7      -0.496900
     15 C14          3.1820    -0.3240    -0.0350 c6         1 2W7       0.136400
     16 C18          3.4460     0.7860    -1.0620 c6         1 2W7      -0.081733
     17 C17          4.8900     1.2780    -0.9360 c6         1 2W7      -0.056033
     18 C19          5.1230     1.8210     0.4760 c6         1 2W7      -0.071400
     19 C23          4.8820     0.7060     1.4960 c6         1 2W7      -0.056033
     20 C24          3.4380     0.2110     1.3810 c6         1 2W7      -0.081733
     21 C25          5.8430    -0.4530     1.2270 c6         1 2W7      -0.071400
     22 C20          5.6020    -0.9930    -0.1840 c6         1 2W7      -0.056033
     23 C26          4.1570    -1.4780    -0.3040 c6         1 2W7      -0.081733
     24 C16          5.8510     0.1200    -1.2040 c6         1 2W7      -0.071400
     25 H1          -4.7870    -2.1990     1.0810 hs         1 2W7       0.253800
     26 H6          -7.1230     0.9340     1.0740 ha         1 2W7       0.130000
     27 H7          -6.8350     2.9350    -0.3090 ha         1 2W7       0.118000
     28 H8          -4.7790     3.2160    -1.6790 ha         1 2W7       0.120000
     29 H9          -3.0320     1.4920    -1.6080 ha         1 2W7       0.119000
     30 H3          -1.5890     0.7000     0.0650 hn         1 2W7       0.350500
     31 H122        -0.5550    -1.8450     0.6390 h1         1 2W7       0.066700
     32 H121        -0.5000    -1.6580    -1.1070 h1         1 2W7       0.066700
     33 H4           1.7720    -1.8620    -0.3640 hn         1 2W7       0.313500
     34 HZ12         3.2640     0.3970    -2.0700 hc         1 2W7       0.051367
     35 HZ11         2.7540     1.6160    -0.9090 hc         1 2W7       0.051367
     36 HY1          5.0570     2.0730    -1.6690 hc         1 2W7       0.053033
     37 HX22         6.1460     2.1990     0.5670 hc         1 2W7       0.043200
     38 HX21         4.4540     2.6640     0.6730 hc         1 2W7       0.043200
     39 HY3          5.0460     1.0900     2.5070 hc         1 2W7       0.053033
     40 HZ21         2.7440     1.0220     1.6110 hc         1 2W7       0.051367
     41 HZ22         3.2520    -0.5880     2.1080 hc         1 2W7       0.051367
     42 HX31         6.8800    -0.1180     1.3310 hc         1 2W7       0.043200
     43 HX32         5.6910    -1.2450     1.9670 hc         1 2W7       0.043200
     44 HY2          6.2760    -1.8320    -0.3800 hc         1 2W7       0.053033
     45 HZ32         3.9710    -2.2890     0.4090 hc         1 2W7       0.051367
     46 HZ31         3.9770    -1.8810    -1.3080 hc         1 2W7       0.051367
     47 HX12         5.7090    -0.2610    -2.2210 hc         1 2W7       0.043200
     48 HX11         6.8880     0.4660    -1.1360 hc         1 2W7       0.043200
@<TRIPOS>BOND
     1     1     2 1   
     2     1    25 1   
     3     2     3 ar  
     4     2     4 ar  
     5     3     5 ar  
     6     3    26 1   
     7     4     7 ar  
     8     4     8 1   
     9     5     6 ar  
    10     5    27 1   
    11     6     7 ar  
    12     6    28 1   
    13     7    29 1   
    14     8     9 2   
    15     8    10 1   
    16    10    11 1   
    17    10    30 1   
    18    11    12 1   
    19    11    31 1   
    20    11    32 1   
    21    12    13 2   
    22    12    14 1   
    23    14    15 1   
    24    14    33 1   
    25    15    16 1   
    26    15    20 1   
    27    15    23 1   
    28    16    17 1   
    29    16    34 1   
    30    16    35 1   
    31    17    18 1   
    32    17    24 1   
    33    17    36 1   
    34    18    19 1   
    35    18    37 1   
    36    18    38 1   
    37    19    20 1   
    38    19    21 1   
    39    19    39 1   
    40    20    40 1   
    41    20    41 1   
    42    21    22 1   
    43    21    42 1   
    44    21    43 1   
    45    22    23 1   
    46    22    24 1   
    47    22    44 1   
    48    23    45 1   
    49    23    46 1   
    50    24    47 1   
    51    24    48 1   
@<TRIPOS>SUBSTRUCTURE
     1 2W7         1 TEMP              0 ****  ****    0 ROOT
