@<TRIPOS>MOLECULE
2W8
   32    33     1     0     0
SMALL
No Charge or Current Charge


@<TRIPOS>ATOM
      1 C1          -0.2150    -0.6560    -0.0140 cp         1 2W8      -0.067000
      2 C2          -0.2920    -2.0270    -0.3630 ca         1 2W8      -0.118000
      3 C3           0.8450    -2.8510    -0.3180 ca         1 2W8      -0.117000
      4 C5           2.0830    -2.3220     0.0800 ca         1 2W8      -0.101000
      5 C6           2.1900    -0.9650     0.4350 ca         1 2W8      -0.043300
      6 C7           1.0460    -0.1440     0.3850 ca         1 2W8      -0.097000
      7 C9           3.5310    -0.3860     0.8690 c3         1 2W8      -0.025100
      8 C10          4.2870     0.2840    -0.3020 c3         1 2W8      -0.204400
      9 C11          5.6310     0.8440     0.1920 c          1 2W8       0.718000
     10 O12          5.6540     1.9830     0.6310 o          1 2W8      -0.737000
     11 O14          6.6050     0.1060     0.1720 o          1 2W8      -0.737000
     12 C19         -1.4250     0.2250    -0.0650 cp         1 2W8      -0.012000
     13 C20         -1.3250     1.5790    -0.4700 ca         1 2W8      -0.059000
     14 C22         -2.4590     2.4060    -0.5190 ca         1 2W8      -0.123000
     15 C24         -3.7200     1.9000    -0.1640 ca         1 2W8      -0.062000
     16 C26         -3.8570     0.5540     0.2450 ca         1 2W8      -0.181200
     17 N27         -5.2000     0.0080     0.6290 no         1 2W8       0.696200
     18 O28         -6.1770     0.7670     0.5820 o          1 2W8      -0.411000
     19 O29         -5.2730    -1.1790     0.9750 o          1 2W8      -0.411000
     20 C30         -2.7060    -0.2700     0.2900 ca         1 2W8      -0.051000
     21 H1          -1.2370    -2.4550    -0.6890 ha         1 2W8       0.102000
     22 H2           0.7670    -3.9000    -0.5960 ha         1 2W8       0.103000
     23 H3           2.9590    -2.9650     0.1090 ha         1 2W8       0.118000
     24 H4           1.1370     0.9010     0.6710 ha         1 2W8       0.115000
     25 H5           3.3790     0.3500     1.6690 hc         1 2W8       0.054200
     26 H6           4.1600    -1.1750     1.3010 hc         1 2W8       0.054200
     27 H7           4.4480    -0.5060    -1.0450 hc         1 2W8       0.020200
     28 H8           3.6380     1.0950    -0.6540 hc         1 2W8       0.020200
     29 H10         -0.3620     1.9890    -0.7620 ha         1 2W8       0.138000
     30 H11         -2.3600     3.4410    -0.8360 ha         1 2W8       0.124000
     31 H12         -4.5840     2.5610    -0.2110 ha         1 2W8       0.143000
     32 H13         -2.7930    -1.3040     0.6170 ha         1 2W8       0.151000
@<TRIPOS>BOND
     1     1     2 ar  
     2     1     6 ar  
     3     1    12 1   
     4     2     3 ar  
     5     2    21 1   
     6     3     4 ar  
     7     3    22 1   
     8     4     5 ar  
     9     4    23 1   
    10     5     6 ar  
    11     5     7 1   
    12     6    24 1   
    13     7     8 1   
    14     7    25 1   
    15     7    26 1   
    16     8     9 1   
    17     8    27 1   
    18     8    28 1   
    19     9    10 1   
    20     9    11 1   
    21    12    13 ar  
    22    12    20 ar  
    23    13    14 ar  
    24    13    29 1   
    25    14    15 ar  
    26    14    30 1   
    27    15    16 ar  
    28    15    31 1   
    29    16    17 1   
    30    16    20 ar  
    31    17    18 1   
    32    17    19 1   
    33    20    32 1   
@<TRIPOS>SUBSTRUCTURE
     1 2W8         1 TEMP              0 ****  ****    0 ROOT
