@<TRIPOS>MOLECULE
2W8
   32    33     1     0     0
SMALL
abcg2


@<TRIPOS>ATOM
      1 C1          -0.2130    -0.6570     0.0010 cp         1 2W8      -0.067000
      2 C2          -0.2910    -1.9810    -0.4310 ca         1 2W8      -0.118000
      3 C3           0.8350    -2.7890    -0.4050 ca         1 2W8      -0.117000
      4 C5           2.0470    -2.2870     0.0460 ca         1 2W8      -0.101000
      5 C6           2.1530    -0.9680     0.4810 ca         1 2W8      -0.043300
      6 C7           1.0130    -0.1700     0.4530 ca         1 2W8      -0.097000
      7 C9           3.4750    -0.4030     0.9210 c3         1 2W8      -0.025100
      8 C10          4.1960     0.2880    -0.2340 c3         1 2W8      -0.204400
      9 C11          5.5860     0.8580     0.1010 c          1 2W8       0.718000
     10 O12          6.1340     1.5160    -0.8080 o          1 2W8      -0.737000
     11 O14          6.0580     0.6190     1.2290 o          1 2W8      -0.737000
     12 C19         -1.4050     0.2150    -0.0210 cp         1 2W8      -0.012000
     13 C20         -1.3000     1.5730    -0.3290 ca         1 2W8      -0.059000
     14 C22         -2.4180     2.3920    -0.3510 ca         1 2W8      -0.123000
     15 C24         -3.6730     1.8780    -0.0710 ca         1 2W8      -0.062000
     16 C26         -3.7720     0.5280     0.2310 ca         1 2W8      -0.181200
     17 N27         -5.0820    -0.0350     0.5320 no         1 2W8       0.696200
     18 O28         -6.0320     0.7120     0.5340 o          1 2W8      -0.411000
     19 O29         -5.1550    -1.2180     0.7620 o          1 2W8      -0.411000
     20 C30         -2.6650    -0.3050     0.2620 ca         1 2W8      -0.051000
     21 H1          -1.2250    -2.3780    -0.8090 ha         1 2W8       0.102000
     22 H2           0.7670    -3.8140    -0.7450 ha         1 2W8       0.103000
     23 H3           2.9210    -2.9280     0.0630 ha         1 2W8       0.118000
     24 H4           1.0840     0.8500     0.8160 ha         1 2W8       0.115000
     25 H5           3.3220     0.3080     1.7360 hc         1 2W8       0.054200
     26 H6           4.1020    -1.2030     1.3180 hc         1 2W8       0.054200
     27 H7           4.3040    -0.4150    -1.0670 hc         1 2W8       0.020200
     28 H8           3.5720     1.0990    -0.6250 hc         1 2W8       0.020200
     29 H10         -0.3340     1.9950    -0.5760 ha         1 2W8       0.138000
     30 H11         -2.3130     3.4390    -0.5970 ha         1 2W8       0.124000
     31 H12         -4.5420     2.5190    -0.0930 ha         1 2W8       0.143000
     32 H13         -2.7750    -1.3480     0.5210 ha         1 2W8       0.151000
@<TRIPOS>BOND
     1     1     2 ar  
     2     1     6 ar  
     3     1    12 1   
     4     2     3 ar  
     5     2    21 1   
     6     3     4 ar  
     7     3    22 1   
     8     4     5 ar  
     9     4    23 1   
    10     5     6 ar  
    11     5     7 1   
    12     6    24 1   
    13     7     8 1   
    14     7    25 1   
    15     7    26 1   
    16     8     9 1   
    17     8    27 1   
    18     8    28 1   
    19     9    10 1   
    20     9    11 1   
    21    12    13 ar  
    22    12    20 ar  
    23    13    14 ar  
    24    13    29 1   
    25    14    15 ar  
    26    14    30 1   
    27    15    16 ar  
    28    15    31 1   
    29    16    17 1   
    30    16    20 ar  
    31    17    18 1   
    32    17    19 1   
    33    20    32 1   
@<TRIPOS>SUBSTRUCTURE
     1 2W8         1 TEMP              0 ****  ****    0 ROOT
