@<TRIPOS>MOLECULE
2W9
   29    30     1     0     0
SMALL
bcc


@<TRIPOS>ATOM
      1 C1          -0.4430    -1.4800    -0.0470 ca         1 2W9      -0.175500
      2 C2           0.5700    -0.5730    -0.3680 ca         1 2W9      -0.088000
      3 C3           1.8910    -0.9850    -0.4960 ca         1 2W9      -0.047300
      4 C4           2.9780     0.0110    -0.7820 c3         1 2W9      -0.026100
      5 C7           3.5640     0.5740     0.5100 c3         1 2W9      -0.205400
      6 C8           4.6840     1.6160     0.3330 c          1 2W9       0.929600
      7 O9           5.1530     2.0900     1.3880 o          1 2W9      -0.840300
      8 O11          5.0330     1.9040    -0.8280 o          1 2W9      -0.840300
      9 C14          2.1900    -2.3320    -0.2960 ca         1 2W9      -0.104000
     10 C15          1.1920    -3.2430     0.0210 ca         1 2W9      -0.142000
     11 C16         -0.1210    -2.8250     0.1460 ca         1 2W9      -0.119000
     12 C21         -1.8230    -1.0540     0.0870 cc         1 2W9       0.405200
     13 O22         -2.1120     0.2340    -0.1630 os         1 2W9      -0.269800
     14 C23         -3.4280     0.3850     0.0250 cc         1 2W9       0.100200
     15 N24         -3.9690     1.6660    -0.1810 no         1 2W9       0.245500
     16 O25         -5.1650     1.7870    -0.0070 o          1 2W9      -0.203500
     17 O26         -3.2210     2.5590    -0.5140 o          1 2W9      -0.203500
     18 C27         -4.0180    -0.7830     0.3960 cd         1 2W9      -0.140300
     19 C29         -2.9690    -1.7230     0.4380 cd         1 2W9      -0.312300
     20 H1           0.3380     0.4740    -0.5220 ha         1 2W9       0.154000
     21 H2           3.7670    -0.4630    -1.3700 hc         1 2W9       0.056700
     22 H3           2.5820     0.8270    -1.3910 hc         1 2W9       0.056700
     23 H4           2.7640     1.0230     1.1080 hc         1 2W9       0.021200
     24 H5           3.9500    -0.2480     1.1240 hc         1 2W9       0.021200
     25 H7           3.2150    -2.6710    -0.3910 ha         1 2W9       0.139000
     26 H8           1.4370    -4.2860     0.1690 ha         1 2W9       0.123000
     27 H9          -0.8910    -3.5460     0.3880 ha         1 2W9       0.119000
     28 H10         -5.0600    -0.9500     0.6100 ha         1 2W9       0.178000
     29 H11         -3.0550    -2.7650     0.6970 ha         1 2W9       0.168000
@<TRIPOS>BOND
     1     1     2 ar  
     2     1    11 ar  
     3     1    12 1   
     4     2     3 ar  
     5     2    20 1   
     6     3     4 1   
     7     3     9 ar  
     8     4     5 1   
     9     4    21 1   
    10     4    22 1   
    11     5     6 1   
    12     5    23 1   
    13     5    24 1   
    14     6     7 1   
    15     6     8 1   
    16     9    10 ar  
    17     9    25 1   
    18    10    11 ar  
    19    10    26 1   
    20    11    27 1   
    21    12    13 1   
    22    12    19 2   
    23    13    14 1   
    24    14    15 1   
    25    14    18 2   
    26    15    16 1   
    27    15    17 1   
    28    18    19 1   
    29    18    28 1   
    30    19    29 1   
@<TRIPOS>SUBSTRUCTURE
     1 2W9         1 TEMP              0 ****  ****    0 ROOT
