@<TRIPOS>MOLECULE
2W9
   29    30     1     0     0
SMALL
No Charge or Current Charge


@<TRIPOS>ATOM
      1 C1          -0.4480    -1.4680    -0.0740 ca         1 2W9      -0.175500
      2 C2           0.6060    -0.5590    -0.3180 ca         1 2W9      -0.070000
      3 C3           1.9340    -1.0070    -0.4540 ca         1 2W9      -0.047300
      4 C4           3.0570    -0.0100    -0.7140 c3         1 2W9      -0.026100
      5 C7           3.6210     0.5910     0.5950 c3         1 2W9      -0.205400
      6 C8           4.7520     1.5820     0.2740 c          1 2W9       0.719000
      7 O9           4.4550     2.7490     0.0700 o          1 2W9      -0.735000
      8 O11          5.8900     1.1480     0.1850 o          1 2W9      -0.735000
      9 C14          2.2160    -2.3800    -0.3450 ca         1 2W9      -0.086000
     10 C15          1.1790    -3.2940    -0.1040 ca         1 2W9      -0.124000
     11 C16         -0.1450    -2.8440     0.0300 ca         1 2W9      -0.101000
     12 C21         -1.8230    -0.9680     0.0640 cc         1 2W9       0.295500
     13 O22         -2.1450     0.3600    -0.0750 os         1 2W9      -0.181000
     14 C23         -3.5140     0.4500     0.1220 cc         1 2W9      -0.009500
     15 N24         -4.1800     1.7340     0.0410 no         1 2W9       0.625500
     16 O25         -5.4050     1.7600     0.2250 o          1 2W9      -0.393500
     17 O26         -3.4940     2.7360    -0.2070 o          1 2W9      -0.393500
     18 C27         -4.0150    -0.8060     0.3780 cd         1 2W9      -0.057000
     19 C29         -2.9350    -1.7140     0.3410 cd         1 2W9      -0.229000
     20 H1           0.3980     0.5070    -0.4000 ha         1 2W9       0.136000
     21 H2           3.8710    -0.4950    -1.2680 hc         1 2W9       0.056700
     22 H3           2.6960     0.8020    -1.3580 hc         1 2W9       0.056700
     23 H4           2.7810     1.1080     1.0750 hc         1 2W9       0.021200
     24 H5           4.0060    -0.2580     1.1730 hc         1 2W9       0.021200
     25 H7           3.2390    -2.7380    -0.4440 ha         1 2W9       0.121000
     26 H8           1.4020    -4.3550    -0.0200 ha         1 2W9       0.105000
     27 H9          -0.9250    -3.5770     0.2150 ha         1 2W9       0.101000
     28 H10         -5.0560    -1.0480     0.5730 ha         1 2W9       0.160000
     29 H11         -2.9860    -2.7840     0.5040 ha         1 2W9       0.150000
@<TRIPOS>BOND
     1     1     2 ar  
     2     1    11 ar  
     3     1    12 1   
     4     2     3 ar  
     5     2    20 1   
     6     3     4 1   
     7     3     9 ar  
     8     4     5 1   
     9     4    21 1   
    10     4    22 1   
    11     5     6 1   
    12     5    23 1   
    13     5    24 1   
    14     6     7 1   
    15     6     8 1   
    16     9    10 ar  
    17     9    25 1   
    18    10    11 ar  
    19    10    26 1   
    20    11    27 1   
    21    12    13 1   
    22    12    19 2   
    23    13    14 1   
    24    14    15 1   
    25    14    18 2   
    26    15    16 1   
    27    15    17 1   
    28    18    19 1   
    29    18    28 1   
    30    19    29 1   
@<TRIPOS>SUBSTRUCTURE
     1 2W9         1 TEMP              0 ****  ****    0 ROOT
