@<TRIPOS>MOLECULE
2WA
  110   109     1     0     0
SMALL
No Charge or Current Charge


@<TRIPOS>ATOM
      1 CBE         15.1300     6.9510     2.9740 c3         1 2WA      -0.088100
      2 CBD         14.1990     6.9460     1.7460 c3         1 2WA      -0.075400
      3 CBC         13.4370     5.6150     1.5690 c3         1 2WA      -0.075400
      4 CBB         12.5050     5.6110     0.3380 c3         1 2WA      -0.074400
      5 CBA         11.7420     4.2790     0.1620 c3         1 2WA      -0.074400
      6 CAZ         10.8100     4.2750    -1.0700 c3         1 2WA      -0.075400
      7 CAY         10.0460     2.9440    -1.2440 c3         1 2WA      -0.071400
      8 CAX          9.1140     2.9360    -2.4730 c3         1 2WA      -0.041200
      9 CAW          8.3720     1.6230    -2.6180 c2         1 2WA      -0.217200
     10 CAV          7.0430     1.4700    -2.5140 c2         1 2WA      -0.219200
     11 CAU          6.3010     0.1570    -2.6600 c3         1 2WA      -0.040200
     12 CAT          5.6160    -0.2710    -1.3460 c3         1 2WA      -0.073400
     13 CAS          4.8540    -1.6100    -1.4660 c3         1 2WA      -0.074400
     14 CAR          4.1700    -2.0350    -0.1480 c3         1 2WA      -0.076400
     15 CAQ          3.4070    -3.3730    -0.2680 c3         1 2WA      -0.070400
     16 CAP          2.7190    -3.7970     1.0530 c3         1 2WA      -0.106400
     17 CAO          1.9090    -5.1060     0.9450 c3         1 2WA       0.381300
     18 OAD          2.7860    -6.2020     0.7220 oh         1 2WA      -0.684000
     19 OAN          1.2420    -5.2890     2.1970 os         1 2WA      -0.462000
     20 CAM          0.3000    -6.3980     2.2890 c3         1 2WA       0.182300
     21 CAL         -0.1890    -6.5350     3.7670 c3         1 2WA       0.155600
     22 OAK         -0.7770    -5.3320     4.3010 oh         1 2WA      -0.689000
     23 CBI         -0.8500    -6.2650     1.2370 c3         1 2WA       0.165600
     24 OBJ         -1.4830    -4.9690     1.3230 os         1 2WA      -0.454000
     25 CBK         -2.6020    -4.7790     0.4590 c3         1 2WA       0.382300
     26 OCC         -2.1500    -4.7280    -0.8870 oh         1 2WA      -0.684000
     27 CBL         -3.2510    -3.4330     0.8480 c3         1 2WA      -0.106400
     28 CBM         -4.5620    -3.1200     0.0860 c3         1 2WA      -0.071400
     29 CBN         -5.2120    -1.7900     0.5240 c3         1 2WA      -0.075400
     30 CBO         -6.5200    -1.4770    -0.2350 c3         1 2WA      -0.074400
     31 CBP         -7.1690    -0.1450     0.2030 c3         1 2WA      -0.074400
     32 CBQ         -8.4760     0.1690    -0.5580 c3         1 2WA      -0.074400
     33 CBR         -9.1240     1.5010    -0.1200 c3         1 2WA      -0.074400
     34 CBS        -10.4310     1.8160    -0.8800 c3         1 2WA      -0.074400
     35 CBT        -11.0790     3.1470    -0.4420 c3         1 2WA      -0.074400
     36 CBU        -12.3860     3.4620    -1.2030 c3         1 2WA      -0.074400
     37 CBV        -13.0340     4.7940    -0.7650 c3         1 2WA      -0.074400
     38 CBW        -14.3410     5.1090    -1.5250 c3         1 2WA      -0.075400
     39 CBX        -14.9880     6.4410    -1.0880 c3         1 2WA      -0.074400
     40 CBY        -16.2930     6.7560    -1.8460 c3         1 2WA      -0.088100
     41 H1          15.6480     7.9140     3.0580 hc         1 2WA       0.031367
     42 H2          14.5580     6.7870     3.8950 hc         1 2WA       0.031367
     43 H3          15.8860     6.1610     2.8910 hc         1 2WA       0.031367
     44 H4          13.4790     7.7680     1.8420 hc         1 2WA       0.036200
     45 H5          14.7950     7.1470     0.8470 hc         1 2WA       0.036200
     46 H6          14.1610     4.7960     1.4750 hc         1 2WA       0.036700
     47 H7          12.8450     5.4170     2.4710 hc         1 2WA       0.036700
     48 H8          11.7810     6.4300     0.4320 hc         1 2WA       0.036700
     49 H9          13.0980     5.8080    -0.5640 hc         1 2WA       0.036700
     50 H10         12.4660     3.4600     0.0690 hc         1 2WA       0.037700
     51 H11         11.1490     4.0820     1.0630 hc         1 2WA       0.037700
     52 H12         10.0870     5.0950    -0.9770 hc         1 2WA       0.037200
     53 H13         11.4040     4.4710    -1.9710 hc         1 2WA       0.037200
     54 H14         10.7680     2.1220    -1.3360 hc         1 2WA       0.040200
     55 H15          9.4510     2.7480    -0.3440 hc         1 2WA       0.040200
     56 H16          8.4030     3.7670    -2.3860 hc         1 2WA       0.043200
     57 H17          9.7060     3.1270    -3.3770 hc         1 2WA       0.043200
     58 H18          9.0140     0.7640    -2.8230 ha         1 2WA       0.165000
     59 H19          6.4010     2.3290    -2.3110 ha         1 2WA       0.165000
     60 H20          5.5440     0.2470    -3.4490 hc         1 2WA       0.043700
     61 H21          6.9890    -0.6360    -2.9780 hc         1 2WA       0.043700
     62 H22          6.3760    -0.3570    -0.5590 hc         1 2WA       0.040200
     63 H23          4.9180     0.5150    -1.0320 hc         1 2WA       0.040200
     64 H24          4.0960    -1.5230    -2.2540 hc         1 2WA       0.038200
     65 H25          5.5540    -2.3950    -1.7790 hc         1 2WA       0.038200
     66 H26          4.9290    -2.1230     0.6400 hc         1 2WA       0.038700
     67 H27          3.4720    -1.2490     0.1650 hc         1 2WA       0.038700
     68 H28          2.6490    -3.2860    -1.0560 hc         1 2WA       0.043200
     69 H29          4.1080    -4.1570    -0.5830 hc         1 2WA       0.043200
     70 H30          3.4720    -3.8950     1.8440 hc         1 2WA       0.058700
     71 H31          2.0370    -2.9960     1.3640 hc         1 2WA       0.058700
     72 H32          1.2000    -5.0250     0.1120 h2         1 2WA       0.057700
     73 H33          3.3280    -6.2620     1.5350 ho         1 2WA       0.450000
     74 H34          0.8210    -7.3370     2.0590 h1         1 2WA       0.046700
     75 H35         -0.9120    -7.3600     3.8200 h1         1 2WA       0.019200
     76 H36          0.6720    -6.8270     4.3840 h1         1 2WA       0.019200
     77 H37         -0.9890    -5.5090     5.2450 ho         1 2WA       0.493000
     78 H38         -0.4420    -6.4350     0.2330 h1         1 2WA       0.028200
     79 H39         -1.5850    -7.0590     1.4240 h1         1 2WA       0.028200
     80 H40         -3.3340    -5.5900     0.5710 h2         1 2WA       0.056700
     81 H41         -1.4550    -4.0390    -0.8940 ho         1 2WA       0.448000
     82 H42         -3.4670    -3.4540     1.9230 hc         1 2WA       0.059200
     83 H43         -2.5320    -2.6200     0.6880 hc         1 2WA       0.059200
     84 H44         -4.3580    -3.0800    -0.9910 hc         1 2WA       0.042700
     85 H45         -5.2740    -3.9400     0.2460 hc         1 2WA       0.042700
     86 H46         -5.4210    -1.8280     1.6010 hc         1 2WA       0.038200
     87 H47         -4.4990    -0.9710     0.3650 hc         1 2WA       0.038200
     88 H48         -6.3110    -1.4390    -1.3120 hc         1 2WA       0.037700
     89 H49         -7.2340    -2.2940    -0.0750 hc         1 2WA       0.037700
     90 H50         -7.3780    -0.1830     1.2790 hc         1 2WA       0.037700
     91 H51         -6.4540     0.6730     0.0440 hc         1 2WA       0.037700
     92 H52         -8.2660     0.2070    -1.6340 hc         1 2WA       0.037700
     93 H53         -9.1900    -0.6480    -0.3990 hc         1 2WA       0.037700
     94 H54         -9.3340     1.4630     0.9560 hc         1 2WA       0.036700
     95 H55         -8.4090     2.3180    -0.2780 hc         1 2WA       0.036700
     96 H56        -10.2210     1.8540    -1.9560 hc         1 2WA       0.036700
     97 H57        -11.1460     0.9980    -0.7210 hc         1 2WA       0.036700
     98 H58        -11.2890     3.1090     0.6340 hc         1 2WA       0.036700
     99 H59        -10.3640     3.9650    -0.6010 hc         1 2WA       0.036700
    100 H60        -12.1760     3.5000    -2.2790 hc         1 2WA       0.036700
    101 H61        -13.1010     2.6450    -1.0440 hc         1 2WA       0.036700
    102 H62        -13.2430     4.7560     0.3110 hc         1 2WA       0.036700
    103 H63        -12.3190     5.6120    -0.9240 hc         1 2WA       0.036700
    104 H64        -14.1310     5.1480    -2.6020 hc         1 2WA       0.036700
    105 H65        -15.0560     4.2920    -1.3670 hc         1 2WA       0.036700
    106 H66        -15.2010     6.4060    -0.0120 hc         1 2WA       0.036700
    107 H67        -14.2770     7.2610    -1.2470 hc         1 2WA       0.036700
    108 H68        -16.1060     6.8320    -2.9240 hc         1 2WA       0.031367
    109 H69        -17.0390     5.9700    -1.6770 hc         1 2WA       0.031367
    110 H70        -16.7140     7.7080    -1.5020 hc         1 2WA       0.031367
@<TRIPOS>BOND
     1     1     2 1   
     2     1    41 1   
     3     1    42 1   
     4     1    43 1   
     5     2     3 1   
     6     2    44 1   
     7     2    45 1   
     8     3     4 1   
     9     3    46 1   
    10     3    47 1   
    11     4     5 1   
    12     4    48 1   
    13     4    49 1   
    14     5     6 1   
    15     5    50 1   
    16     5    51 1   
    17     6     7 1   
    18     6    52 1   
    19     6    53 1   
    20     7     8 1   
    21     7    54 1   
    22     7    55 1   
    23     8     9 1   
    24     8    56 1   
    25     8    57 1   
    26     9    10 2   
    27     9    58 1   
    28    10    11 1   
    29    10    59 1   
    30    11    12 1   
    31    11    60 1   
    32    11    61 1   
    33    12    13 1   
    34    12    62 1   
    35    12    63 1   
    36    13    14 1   
    37    13    64 1   
    38    13    65 1   
    39    14    15 1   
    40    14    66 1   
    41    14    67 1   
    42    15    16 1   
    43    15    68 1   
    44    15    69 1   
    45    16    17 1   
    46    16    70 1   
    47    16    71 1   
    48    17    18 1   
    49    17    19 1   
    50    17    72 1   
    51    18    73 1   
    52    19    20 1   
    53    20    21 1   
    54    20    23 1   
    55    20    74 1   
    56    21    22 1   
    57    21    75 1   
    58    21    76 1   
    59    22    77 1   
    60    23    24 1   
    61    23    78 1   
    62    23    79 1   
    63    24    25 1   
    64    25    26 1   
    65    25    27 1   
    66    25    80 1   
    67    26    81 1   
    68    27    28 1   
    69    27    82 1   
    70    27    83 1   
    71    28    29 1   
    72    28    84 1   
    73    28    85 1   
    74    29    30 1   
    75    29    86 1   
    76    29    87 1   
    77    30    31 1   
    78    30    88 1   
    79    30    89 1   
    80    31    32 1   
    81    31    90 1   
    82    31    91 1   
    83    32    33 1   
    84    32    92 1   
    85    32    93 1   
    86    33    34 1   
    87    33    94 1   
    88    33    95 1   
    89    34    35 1   
    90    34    96 1   
    91    34    97 1   
    92    35    36 1   
    93    35    98 1   
    94    35    99 1   
    95    36    37 1   
    96    36   100 1   
    97    36   101 1   
    98    37    38 1   
    99    37   102 1   
   100    37   103 1   
   101    38    39 1   
   102    38   104 1   
   103    38   105 1   
   104    39    40 1   
   105    39   106 1   
   106    39   107 1   
   107    40   108 1   
   108    40   109 1   
   109    40   110 1   
@<TRIPOS>SUBSTRUCTURE
     1 2WA         1 TEMP              0 ****  ****    0 ROOT
