@<TRIPOS>MOLECULE
2WA
  110   109     1     0     0
SMALL
bcc


@<TRIPOS>ATOM
      1 CBE         11.4900     9.5980     1.7260 c3         1 2WA      -0.088100
      2 CBD         11.5880     8.5880     0.5910 c3         1 2WA      -0.075400
      3 CBC         11.0920     7.2010     0.9810 c3         1 2WA      -0.075400
      4 CBB         11.1980     6.1850    -0.1490 c3         1 2WA      -0.074400
      5 CBA         10.7040     4.7960     0.2350 c3         1 2WA      -0.074400
      6 CAZ         10.8310     3.7820    -0.8950 c3         1 2WA      -0.075400
      7 CAY         10.3240     2.3950    -0.5230 c3         1 2WA      -0.071400
      8 CAX         10.4810     1.3820    -1.6580 c3         1 2WA      -0.041200
      9 CAW          9.9920     0.0180    -1.2830 c2         1 2WA      -0.167200
     10 CAV          9.0080    -0.6360    -1.8920 c2         1 2WA      -0.169200
     11 CAU          8.4810    -1.9790    -1.4940 c3         1 2WA      -0.040200
     12 CAT          7.0080    -1.9210    -1.0890 c3         1 2WA      -0.073400
     13 CAS          6.4280    -3.2810    -0.7220 c3         1 2WA      -0.074400
     14 CAR          4.9610    -3.2010    -0.3190 c3         1 2WA      -0.076400
     15 CAQ          4.3510    -4.5520     0.0350 c3         1 2WA      -0.070400
     16 CAP          2.8930    -4.4210     0.4570 c3         1 2WA      -0.106400
     17 CAO          2.1910    -5.7520     0.6650 c3         1 2WA       0.334900
     18 OAD          2.8380    -6.5760     1.5920 oh         1 2WA      -0.621800
     19 OAN          0.8760    -5.4640     1.0410 os         1 2WA      -0.415600
     20 CAM         -0.0420    -6.5410     0.9990 c3         1 2WA       0.159100
     21 CAL         -0.5030    -6.9130     2.3970 c3         1 2WA       0.132400
     22 OAK         -1.1250    -5.8290     3.0390 oh         1 2WA      -0.566800
     23 CBI         -1.1480    -6.2100     0.0110 c3         1 2WA       0.142400
     24 OBJ         -1.7500    -4.9810     0.3350 os         1 2WA      -0.407600
     25 CBK         -2.8690    -4.6470    -0.4310 c3         1 2WA       0.335900
     26 OCC         -2.5530    -4.4550    -1.7810 oh         1 2WA      -0.621800
     27 CBL         -3.4910    -3.4180     0.2110 c3         1 2WA      -0.106400
     28 CBM         -4.7460    -2.9230    -0.4970 c3         1 2WA      -0.071400
     29 CBN         -5.3620    -1.7160     0.2000 c3         1 2WA      -0.075400
     30 CBO         -6.6000    -1.1760    -0.5050 c3         1 2WA      -0.074400
     31 CBP         -7.1960     0.0440     0.1860 c3         1 2WA      -0.074400
     32 CBQ         -8.4300     0.5980    -0.5160 c3         1 2WA      -0.074400
     33 CBR         -9.0150     1.8220     0.1780 c3         1 2WA      -0.074400
     34 CBS        -10.2470     2.3850    -0.5210 c3         1 2WA      -0.074400
     35 CBT        -10.8260     3.6100     0.1760 c3         1 2WA      -0.074400
     36 CBU        -12.0580     4.1770    -0.5180 c3         1 2WA      -0.074400
     37 CBV        -12.6330     5.4020     0.1830 c3         1 2WA      -0.074400
     38 CBW        -13.8650     5.9750    -0.5060 c3         1 2WA      -0.075400
     39 CBX        -14.4350     7.1990     0.2000 c3         1 2WA      -0.074400
     40 CBY        -15.6670     7.7690    -0.4910 c3         1 2WA      -0.088100
     41 H1          11.8640    10.5770     1.4260 hc         1 2WA       0.031367
     42 H2          10.4560     9.7250     2.0540 hc         1 2WA       0.031367
     43 H3          12.0700     9.2740     2.5930 hc         1 2WA       0.031367
     44 H4          11.0160     8.9470    -0.2710 hc         1 2WA       0.036200
     45 H5          12.6270     8.5180     0.2540 hc         1 2WA       0.036200
     46 H6          11.6610     6.8440     1.8470 hc         1 2WA       0.036700
     47 H7          10.0500     7.2700     1.3130 hc         1 2WA       0.036700
     48 H8          10.6310     6.5440    -1.0150 hc         1 2WA       0.036700
     49 H9          12.2410     6.1190    -0.4780 hc         1 2WA       0.036700
     50 H10         11.2630     4.4400     1.1070 hc         1 2WA       0.037700
     51 H11          9.6570     4.8580     0.5520 hc         1 2WA       0.037700
     52 H12         10.2820     4.1440    -1.7720 hc         1 2WA       0.037200
     53 H13         11.8800     3.7140    -1.2040 hc         1 2WA       0.037200
     54 H14         10.8610     2.0350     0.3610 hc         1 2WA       0.040200
     55 H15          9.2700     2.4540    -0.2350 hc         1 2WA       0.040200
     56 H16          9.9480     1.7370    -2.5460 hc         1 2WA       0.043200
     57 H17         11.5400     1.3300    -1.9330 hc         1 2WA       0.043200
     58 H18         10.4860    -0.4460    -0.4300 ha         1 2WA       0.115000
     59 H19          8.5110    -0.1660    -2.7400 ha         1 2WA       0.115000
     60 H20          8.5870    -2.6780    -2.3310 hc         1 2WA       0.043700
     61 H21          9.0760    -2.3870    -0.6710 hc         1 2WA       0.043700
     62 H22          6.8980    -1.2350    -0.2430 hc         1 2WA       0.040200
     63 H23          6.4230    -1.4890    -1.9080 hc         1 2WA       0.040200
     64 H24          6.5380    -3.9640    -1.5710 hc         1 2WA       0.038200
     65 H25          7.0110    -3.7160     0.0970 hc         1 2WA       0.038200
     66 H26          4.8580    -2.5230     0.5350 hc         1 2WA       0.038700
     67 H27          4.3850    -2.7500    -1.1340 hc         1 2WA       0.038700
     68 H28          4.4270    -5.2200    -0.8300 hc         1 2WA       0.043200
     69 H29          4.9360    -5.0170     0.8330 hc         1 2WA       0.043200
     70 H30          2.8260    -3.8280     1.3770 hc         1 2WA       0.058700
     71 H31          2.3450    -3.8650    -0.3100 hc         1 2WA       0.058700
     72 H32          2.2020    -6.3280    -0.2710 h2         1 2WA       0.057700
     73 H33          2.9730    -6.0790     2.4080 ho         1 2WA       0.411000
     74 H34          0.4340    -7.4510     0.6050 h1         1 2WA       0.046700
     75 H35         -1.1770    -7.7770     2.3040 h1         1 2WA       0.019200
     76 H36          0.3750    -7.2620     2.9540 h1         1 2WA       0.019200
     77 H37         -1.2920    -6.0900     3.9490 ho         1 2WA       0.394000
     78 H38         -0.7130    -6.1840    -0.9960 h1         1 2WA       0.028200
     79 H39         -1.8840    -7.0270     0.0170 h1         1 2WA       0.028200
     80 H40         -3.5900    -5.4780    -0.4310 h2         1 2WA       0.056700
     81 H41         -2.0390    -3.6430    -1.8670 ho         1 2WA       0.409000
     82 H42         -3.7280    -3.6590     1.2510 hc         1 2WA       0.059200
     83 H43         -2.7430    -2.6160     0.2410 hc         1 2WA       0.059200
     84 H44         -4.5110    -2.6600    -1.5320 hc         1 2WA       0.042700
     85 H45         -5.4850    -3.7300    -0.5460 hc         1 2WA       0.042700
     86 H46         -5.6180    -1.9820     1.2310 hc         1 2WA       0.038200
     87 H47         -4.6110    -0.9210     0.2700 hc         1 2WA       0.038200
     88 H48         -6.3440    -0.9180    -1.5390 hc         1 2WA       0.037700
     89 H49         -7.3570    -1.9650    -0.5680 hc         1 2WA       0.037700
     90 H50         -7.4530    -0.2150     1.2190 hc         1 2WA       0.037700
     91 H51         -6.4340     0.8290     0.2510 hc         1 2WA       0.037700
     92 H52         -8.1730     0.8560    -1.5500 hc         1 2WA       0.037700
     93 H53         -9.1940    -0.1840    -0.5790 hc         1 2WA       0.037700
     94 H54         -9.2720     1.5640     1.2110 hc         1 2WA       0.036700
     95 H55         -8.2480     2.6020     0.2420 hc         1 2WA       0.036700
     96 H56         -9.9910     2.6430    -1.5550 hc         1 2WA       0.036700
     97 H57        -11.0160     1.6070    -0.5850 hc         1 2WA       0.036700
     98 H58        -11.0810     3.3510     1.2100 hc         1 2WA       0.036700
     99 H59        -10.0570     4.3870     0.2400 hc         1 2WA       0.036700
    100 H60        -11.8050     4.4370    -1.5520 hc         1 2WA       0.036700
    101 H61        -12.8290     3.4010    -0.5820 hc         1 2WA       0.036700
    102 H62        -12.8850     5.1420     1.2170 hc         1 2WA       0.036700
    103 H63        -11.8610     6.1780     0.2470 hc         1 2WA       0.036700
    104 H64        -13.6140     6.2370    -1.5400 hc         1 2WA       0.036700
    105 H65        -14.6380     5.2010    -0.5700 hc         1 2WA       0.036700
    106 H66        -14.6850     6.9370     1.2320 hc         1 2WA       0.036700
    107 H67        -13.6630     7.9720     0.2630 hc         1 2WA       0.036700
    108 H68        -15.4410     8.0750    -1.5140 hc         1 2WA       0.031367
    109 H69        -16.4700     7.0320    -0.5390 hc         1 2WA       0.031367
    110 H70        -16.0520     8.6420     0.0370 hc         1 2WA       0.031367
@<TRIPOS>BOND
     1     1     2 1   
     2     1    41 1   
     3     1    42 1   
     4     1    43 1   
     5     2     3 1   
     6     2    44 1   
     7     2    45 1   
     8     3     4 1   
     9     3    46 1   
    10     3    47 1   
    11     4     5 1   
    12     4    48 1   
    13     4    49 1   
    14     5     6 1   
    15     5    50 1   
    16     5    51 1   
    17     6     7 1   
    18     6    52 1   
    19     6    53 1   
    20     7     8 1   
    21     7    54 1   
    22     7    55 1   
    23     8     9 1   
    24     8    56 1   
    25     8    57 1   
    26     9    10 2   
    27     9    58 1   
    28    10    11 1   
    29    10    59 1   
    30    11    12 1   
    31    11    60 1   
    32    11    61 1   
    33    12    13 1   
    34    12    62 1   
    35    12    63 1   
    36    13    14 1   
    37    13    64 1   
    38    13    65 1   
    39    14    15 1   
    40    14    66 1   
    41    14    67 1   
    42    15    16 1   
    43    15    68 1   
    44    15    69 1   
    45    16    17 1   
    46    16    70 1   
    47    16    71 1   
    48    17    18 1   
    49    17    19 1   
    50    17    72 1   
    51    18    73 1   
    52    19    20 1   
    53    20    21 1   
    54    20    23 1   
    55    20    74 1   
    56    21    22 1   
    57    21    75 1   
    58    21    76 1   
    59    22    77 1   
    60    23    24 1   
    61    23    78 1   
    62    23    79 1   
    63    24    25 1   
    64    25    26 1   
    65    25    27 1   
    66    25    80 1   
    67    26    81 1   
    68    27    28 1   
    69    27    82 1   
    70    27    83 1   
    71    28    29 1   
    72    28    84 1   
    73    28    85 1   
    74    29    30 1   
    75    29    86 1   
    76    29    87 1   
    77    30    31 1   
    78    30    88 1   
    79    30    89 1   
    80    31    32 1   
    81    31    90 1   
    82    31    91 1   
    83    32    33 1   
    84    32    92 1   
    85    32    93 1   
    86    33    34 1   
    87    33    94 1   
    88    33    95 1   
    89    34    35 1   
    90    34    96 1   
    91    34    97 1   
    92    35    36 1   
    93    35    98 1   
    94    35    99 1   
    95    36    37 1   
    96    36   100 1   
    97    36   101 1   
    98    37    38 1   
    99    37   102 1   
   100    37   103 1   
   101    38    39 1   
   102    38   104 1   
   103    38   105 1   
   104    39    40 1   
   105    39   106 1   
   106    39   107 1   
   107    40   108 1   
   108    40   109 1   
   109    40   110 1   
@<TRIPOS>SUBSTRUCTURE
     1 2WA         1 TEMP              0 ****  ****    0 ROOT
