@<TRIPOS>MOLECULE
2WB
   36    38     1     0     0
SMALL
bcc


@<TRIPOS>ATOM
      1 O1          -0.5700     0.8840     0.0130 os         1 2WB      -0.263800
      2 C2          -1.7930     1.4490    -0.0810 cc         1 2WB       0.356200
      3 C3          -2.9870     0.6350     0.1220 ca         1 2WB      -0.159500
      4 C4          -3.1190    -0.6750    -0.3660 ca         1 2WB       0.052700
      5 C5          -4.3190    -1.3420    -0.1270 ca         1 2WB      -0.130000
      6 C7          -5.3690    -0.7500     0.5570 ca         1 2WB      -0.118000
      7 C8          -5.2360     0.5500     1.0280 ca         1 2WB      -0.173000
      8 C9          -4.0500     1.2290     0.8130 ca         1 2WB      -0.107000
      9 C13         -2.0430    -1.3720    -1.1360 c3         1 2WB      -0.199100
     10 C14         -1.0400    -2.1460    -0.2450 c          1 2WB       0.937600
     11 O15          0.0560    -2.4180    -0.7740 o          1 2WB      -0.824800
     12 O17         -1.4250    -2.4650     0.8930 o          1 2WB      -0.824800
     13 C20         -1.6530     2.7810    -0.3360 cd         1 2WB      -0.305300
     14 C21         -0.2610     3.0380    -0.3990 cd         1 2WB      -0.260300
     15 C22          0.3600     1.8440    -0.1800 cc         1 2WB       0.273200
     16 C23          1.7630     1.4740    -0.1270 ca         1 2WB      -0.114500
     17 C24          2.1740     0.1410    -0.0980 ca         1 2WB      -0.026000
     18 C26          3.5330    -0.1340    -0.0630 ca         1 2WB      -0.175200
     19 N27          3.9660    -1.5250    -0.0290 no         1 2WB       0.304200
     20 O28          5.1190    -1.7660    -0.3060 o          1 2WB      -0.198500
     21 O29          3.1550    -2.3650     0.2770 o          1 2WB      -0.198500
     22 C30          4.5020     0.8570    -0.0620 ca         1 2WB      -0.082000
     23 C32          4.0800     2.1770    -0.0800 ca         1 2WB      -0.159000
     24 C34          2.7320     2.4830    -0.1100 ca         1 2WB      -0.095000
     25 H1          -4.4380    -2.3500    -0.5060 ha         1 2WB       0.132000
     26 H2          -6.2870    -1.2990     0.7200 ha         1 2WB       0.112000
     27 H3          -6.0430     1.0280     1.5660 ha         1 2WB       0.111000
     28 H4          -3.9320     2.2340     1.2000 ha         1 2WB       0.115000
     29 H5          -2.5160    -2.1120    -1.7920 hc         1 2WB       0.037200
     30 H6          -1.5080    -0.6890    -1.7980 hc         1 2WB       0.037200
     31 H8          -2.4510     3.4900    -0.4830 ha         1 2WB       0.148000
     32 H9           0.2120     3.9850    -0.6010 ha         1 2WB       0.142000
     33 H10          1.4540    -0.6690    -0.1380 ha         1 2WB       0.242000
     34 H11          5.5550     0.6210    -0.0330 ha         1 2WB       0.155000
     35 H12          4.8120     2.9730    -0.0640 ha         1 2WB       0.128000
     36 H13          2.4300     3.5220    -0.1140 ha         1 2WB       0.130000
@<TRIPOS>BOND
     1     1     2 1   
     2     1    15 1   
     3     2     3 1   
     4     2    13 2   
     5     3     4 ar  
     6     3     8 ar  
     7     4     5 ar  
     8     4     9 1   
     9     5     6 ar  
    10     5    25 1   
    11     6     7 ar  
    12     6    26 1   
    13     7     8 ar  
    14     7    27 1   
    15     8    28 1   
    16     9    10 1   
    17     9    29 1   
    18     9    30 1   
    19    10    11 1   
    20    10    12 1   
    21    13    14 1   
    22    13    31 1   
    23    14    15 2   
    24    14    32 1   
    25    15    16 1   
    26    16    17 ar  
    27    16    24 ar  
    28    17    18 ar  
    29    17    33 1   
    30    18    19 1   
    31    18    22 ar  
    32    19    20 1   
    33    19    21 1   
    34    22    23 ar  
    35    22    34 1   
    36    23    24 ar  
    37    23    35 1   
    38    24    36 1   
@<TRIPOS>SUBSTRUCTURE
     1 2WB         1 TEMP              0 ****  ****    0 ROOT
