@<TRIPOS>MOLECULE
2WB
   36    38     1     0     0
SMALL
No Charge or Current Charge


@<TRIPOS>ATOM
      1 O1          -0.4680     0.7340     0.0880 os         1 2WB      -0.175000
      2 C2          -1.7020     1.3040    -0.0990 cc         1 2WB       0.246500
      3 C3          -2.9630     0.6110     0.1670 ca         1 2WB      -0.159500
      4 C4          -3.2600    -0.6770    -0.3610 ca         1 2WB       0.052700
      5 C5          -4.5020    -1.2710    -0.0540 ca         1 2WB      -0.112000
      6 C7          -5.4370    -0.6170     0.7630 ca         1 2WB      -0.100000
      7 C8          -5.1440     0.6510     1.2780 ca         1 2WB      -0.155000
      8 C9          -3.9170     1.2610     0.9800 ca         1 2WB      -0.089000
      9 C13         -2.3170    -1.4380    -1.3010 c3         1 2WB      -0.199100
     10 C14         -1.6410    -2.5890    -0.5410 c          1 2WB       0.727000
     11 O15         -0.5890    -2.3650     0.0370 o          1 2WB      -0.719500
     12 O17         -2.2370    -3.6540    -0.4650 o          1 2WB      -0.719500
     13 C20         -1.5970     2.6130    -0.4880 cd         1 2WB      -0.222000
     14 C21         -0.2140     2.8860    -0.5840 cd         1 2WB      -0.177000
     15 C22          0.4300     1.7250    -0.2290 cc         1 2WB       0.163500
     16 C23          1.8820     1.5150    -0.1820 ca         1 2WB      -0.114500
     17 C24          2.3930     0.2130     0.0270 ca         1 2WB      -0.008000
     18 C26          3.7900    -0.0190     0.0770 ca         1 2WB      -0.175200
     19 N27          4.3210    -1.4030     0.2990 no         1 2WB       0.684200
     20 O28          5.5490    -1.5620     0.3270 o          1 2WB      -0.388500
     21 O29          3.5090    -2.3250     0.4460 o          1 2WB      -0.388500
     22 C30          4.6750     1.0710    -0.0840 ca         1 2WB      -0.064000
     23 C32          4.1710     2.3640    -0.2900 ca         1 2WB      -0.141000
     24 C34          2.7860     2.5870    -0.3390 ca         1 2WB      -0.077000
     25 H1          -4.7470    -2.2510    -0.4580 ha         1 2WB       0.114000
     26 H2          -6.3890    -1.0920     0.9900 ha         1 2WB       0.094000
     27 H3          -5.8670     1.1630     1.9100 ha         1 2WB       0.093000
     28 H4          -3.7010     2.2450     1.3910 ha         1 2WB       0.097000
     29 H5          -2.9460    -1.8480    -2.1000 hc         1 2WB       0.037200
     30 H6          -1.5630    -0.7460    -1.6890 hc         1 2WB       0.037200
     31 H8          -2.4170     3.2950    -0.6870 ha         1 2WB       0.130000
     32 H9           0.2390     3.8260    -0.8800 ha         1 2WB       0.124000
     33 H10          1.6980    -0.6180     0.1470 ha         1 2WB       0.224000
     34 H11          5.7540     0.9260    -0.0500 ha         1 2WB       0.137000
     35 H12          4.8570     3.1990    -0.4110 ha         1 2WB       0.110000
     36 H13          2.4270     3.6010    -0.4930 ha         1 2WB       0.112000
@<TRIPOS>BOND
     1     1     2 1   
     2     1    15 1   
     3     2     3 1   
     4     2    13 2   
     5     3     4 ar  
     6     3     8 ar  
     7     4     5 ar  
     8     4     9 1   
     9     5     6 ar  
    10     5    25 1   
    11     6     7 ar  
    12     6    26 1   
    13     7     8 ar  
    14     7    27 1   
    15     8    28 1   
    16     9    10 1   
    17     9    29 1   
    18     9    30 1   
    19    10    11 1   
    20    10    12 1   
    21    13    14 1   
    22    13    31 1   
    23    14    15 2   
    24    14    32 1   
    25    15    16 1   
    26    16    17 ar  
    27    16    24 ar  
    28    17    18 ar  
    29    17    33 1   
    30    18    19 1   
    31    18    22 ar  
    32    19    20 1   
    33    19    21 1   
    34    22    23 ar  
    35    22    34 1   
    36    23    24 ar  
    37    23    35 1   
    38    24    36 1   
@<TRIPOS>SUBSTRUCTURE
     1 2WB         1 TEMP              0 ****  ****    0 ROOT
