@<TRIPOS>MOLECULE
2WD
   49    48     1     0     0
SMALL
No Charge or Current Charge


@<TRIPOS>ATOM
      1 C1           1.2970     2.5130    -1.2610 c3         1 2WD       0.147600
      2 C2           1.2360     2.1000     0.2520 c3         1 2WD       0.175300
      3 C3          -0.1960     2.1090     0.8620 c3         1 2WD       0.176600
      4 O11          0.9690     1.4440    -2.1700 oh         1 2WD      -0.686000
      5 C21          3.2120     0.6440     0.1350 c3         1 2WD       0.377300
      6 O21          1.8320     0.7910     0.4830 os         1 2WD      -0.462000
      7 C22          3.5620    -0.8500     0.3020 c3         1 2WD      -0.105400
      8 O22          3.9990     1.4280     1.0210 oh         1 2WD      -0.682000
      9 C23          4.9970    -1.2150    -0.1500 c3         1 2WD      -0.073400
     10 C24          5.3080    -2.7220    -0.0170 c3         1 2WD      -0.075400
     11 C25          6.7350    -3.0870    -0.4670 c3         1 2WD      -0.089100
     12 C31         -2.3830     1.0740     0.6850 c3         1 2WD       0.381300
     13 O31         -1.0610     1.1870     0.1610 os         1 2WD      -0.455000
     14 C32         -3.0650    -0.0990    -0.0520 c3         1 2WD      -0.105400
     15 O32         -3.0880     2.2820     0.4330 oh         1 2WD      -0.684000
     16 C33         -4.4760    -0.4450     0.4850 c3         1 2WD      -0.072400
     17 C34         -5.1170    -1.6500    -0.2380 c3         1 2WD      -0.076400
     18 C35         -6.5230    -1.9980     0.2970 c3         1 2WD      -0.075400
     19 C36         -7.1630    -3.2000    -0.4240 c3         1 2WD      -0.088100
     20 H1           0.6180     3.3620    -1.4180 h1         1 2WD       0.014700
     21 H2           2.3100     2.8790    -1.4780 h1         1 2WD       0.014700
     22 H3           1.7990     2.8610     0.8080 h1         1 2WD       0.050700
     23 H4          -0.1290     1.8380     1.9240 h1         1 2WD       0.031200
     24 H5          -0.5930     3.1310     0.8040 h1         1 2WD       0.031200
     25 H6           0.9410     1.8310    -3.0740 ho         1 2WD       0.493000
     26 H7           3.4060     0.9510    -0.9010 h2         1 2WD       0.057700
     27 H8           3.4210    -1.1450     1.3490 hc         1 2WD       0.058700
     28 H9           2.8490    -1.4380    -0.2900 hc         1 2WD       0.058700
     29 H10          3.7130     1.1600     1.9190 ho         1 2WD       0.449000
     30 H11          5.1330    -0.9100    -1.1950 hc         1 2WD       0.042700
     31 H12          5.7240    -0.6470     0.4450 hc         1 2WD       0.042700
     32 H13          5.1740    -3.0300     1.0280 hc         1 2WD       0.037700
     33 H14          4.5880    -3.2960    -0.6140 hc         1 2WD       0.037700
     34 H15          6.9080    -4.1640    -0.3550 hc         1 2WD       0.032367
     35 H16          6.8890    -2.8230    -1.5210 hc         1 2WD       0.032367
     36 H17          7.4810    -2.5550     0.1360 hc         1 2WD       0.032367
     37 H18         -2.3680     0.8750     1.7650 h2         1 2WD       0.057700
     38 H19         -3.1270     0.1290    -1.1230 hc         1 2WD       0.058700
     39 H20         -2.4260    -0.9850     0.0460 hc         1 2WD       0.058700
     40 H21         -2.9450     2.4610    -0.5190 ho         1 2WD       0.448000
     41 H22         -4.4080    -0.6630     1.5580 hc         1 2WD       0.042200
     42 H23         -5.1330     0.4270     0.3770 hc         1 2WD       0.042200
     43 H24         -5.1840    -1.4320    -1.3120 hc         1 2WD       0.038200
     44 H25         -4.4640    -2.5250    -0.1300 hc         1 2WD       0.038200
     45 H26         -6.4600    -2.2190     1.3700 hc         1 2WD       0.036700
     46 H27         -7.1800    -1.1260     0.1870 hc         1 2WD       0.036700
     47 H28         -7.2730    -2.9960    -1.4960 hc         1 2WD       0.031367
     48 H29         -6.5460    -4.0990    -0.3030 hc         1 2WD       0.031367
     49 H30         -8.1570    -3.4090    -0.0110 hc         1 2WD       0.031367
@<TRIPOS>BOND
     1     1     2 1   
     2     1     4 1   
     3     1    20 1   
     4     1    21 1   
     5     2     3 1   
     6     2     6 1   
     7     2    22 1   
     8     3    13 1   
     9     3    23 1   
    10     3    24 1   
    11     4    25 1   
    12     5     6 1   
    13     5     7 1   
    14     5     8 1   
    15     5    26 1   
    16     7     9 1   
    17     7    27 1   
    18     7    28 1   
    19     8    29 1   
    20     9    10 1   
    21     9    30 1   
    22     9    31 1   
    23    10    11 1   
    24    10    32 1   
    25    10    33 1   
    26    11    34 1   
    27    11    35 1   
    28    11    36 1   
    29    12    13 1   
    30    12    14 1   
    31    12    15 1   
    32    12    37 1   
    33    14    16 1   
    34    14    38 1   
    35    14    39 1   
    36    15    40 1   
    37    16    17 1   
    38    16    41 1   
    39    16    42 1   
    40    17    18 1   
    41    17    43 1   
    42    17    44 1   
    43    18    19 1   
    44    18    45 1   
    45    18    46 1   
    46    19    47 1   
    47    19    48 1   
    48    19    49 1   
@<TRIPOS>SUBSTRUCTURE
     1 2WD         1 TEMP              0 ****  ****    0 ROOT
