@<TRIPOS>MOLECULE
2WD
   49    48     1     0     0
SMALL
bcc


@<TRIPOS>ATOM
      1 C1           1.3320     2.6430    -1.5450 c3         1 2WD       0.124400
      2 C2           1.2320     2.0690    -0.1420 c3         1 2WD       0.152100
      3 C3          -0.1380     2.1570     0.5030 c3         1 2WD       0.153400
      4 O11          0.5440     1.9200    -2.4560 oh         1 2WD      -0.563800
      5 C21          3.0250     0.5410     0.1970 c3         1 2WD       0.330900
      6 O21          1.6700     0.7230    -0.1030 os         1 2WD      -0.415600
      7 C22          3.3790    -0.8920    -0.1670 c3         1 2WD      -0.105400
      8 O22          3.3060     0.8540     1.5310 oh         1 2WD      -0.619800
      9 C23          4.8290    -1.2510     0.1340 c3         1 2WD      -0.073400
     10 C24          5.1860    -2.6670    -0.3030 c3         1 2WD      -0.075400
     11 C25          6.6230    -3.0410     0.0300 c3         1 2WD      -0.089100
     12 C31         -2.2390     1.0830     0.5640 c3         1 2WD       0.334900
     13 O31         -1.0570     1.3110    -0.1440 os         1 2WD      -0.408600
     14 C32         -2.9820    -0.0360    -0.1470 c3         1 2WD      -0.105400
     15 O32         -3.0070     2.2450     0.7020 oh         1 2WD      -0.621800
     16 C33         -4.2800    -0.4330     0.5440 c3         1 2WD      -0.072400
     17 C34         -4.9580    -1.6200    -0.1300 c3         1 2WD      -0.076400
     18 C35         -6.2530    -2.0410     0.5550 c3         1 2WD      -0.075400
     19 C36         -6.9290    -3.2200    -0.1300 c3         1 2WD      -0.088100
     20 H1           1.0360     3.7000    -1.4880 h1         1 2WD       0.014700
     21 H2           2.3910     2.6380    -1.8390 h1         1 2WD       0.014700
     22 H3           1.8740     2.7080     0.4800 h1         1 2WD       0.050700
     23 H4          -0.0370     1.8760     1.5610 h1         1 2WD       0.031200
     24 H5          -0.4610     3.2050     0.4800 h1         1 2WD       0.031200
     25 H6           0.7500     2.2440    -3.3370 ho         1 2WD       0.394000
     26 H7           3.6450     1.2350    -0.3870 h2         1 2WD       0.057700
     27 H8           2.7080    -1.5740     0.3690 hc         1 2WD       0.058700
     28 H9           3.1800    -1.0330    -1.2330 hc         1 2WD       0.058700
     29 H10          2.8870     0.1960     2.0990 ho         1 2WD       0.410000
     30 H11          5.4950    -0.5400    -0.3680 hc         1 2WD       0.042700
     31 H12          5.0220    -1.1470     1.2050 hc         1 2WD       0.042700
     32 H13          4.5040    -3.3760     0.1750 hc         1 2WD       0.037700
     33 H14          5.0210    -2.7680    -1.3800 hc         1 2WD       0.037700
     34 H15          6.8550    -4.0590    -0.2850 hc         1 2WD       0.032367
     35 H16          7.3320    -2.3740    -0.4630 hc         1 2WD       0.032367
     36 H17          6.8070    -2.9790     1.1050 hc         1 2WD       0.032367
     37 H18         -2.0050     0.7810     1.5950 h2         1 2WD       0.057700
     38 H19         -3.1870     0.2690    -1.1810 hc         1 2WD       0.058700
     39 H20         -2.3210    -0.9040    -0.2030 hc         1 2WD       0.058700
     40 H21         -3.3690     2.4820    -0.1600 ho         1 2WD       0.409000
     41 H22         -4.0730    -0.6830     1.5910 hc         1 2WD       0.042200
     42 H23         -4.9710     0.4140     0.5620 hc         1 2WD       0.042200
     43 H24         -5.1660    -1.3720    -1.1770 hc         1 2WD       0.038200
     44 H25         -4.2670    -2.4700    -0.1510 hc         1 2WD       0.038200
     45 H26         -6.0440    -2.2940     1.5990 hc         1 2WD       0.036700
     46 H27         -6.9410    -1.1900     0.5820 hc         1 2WD       0.036700
     47 H28         -7.1990    -2.9770    -1.1590 hc         1 2WD       0.031367
     48 H29         -6.2710    -4.0910    -0.1600 hc         1 2WD       0.031367
     49 H30         -7.8420    -3.5140     0.3880 hc         1 2WD       0.031367
@<TRIPOS>BOND
     1     1     2 1   
     2     1     4 1   
     3     1    20 1   
     4     1    21 1   
     5     2     3 1   
     6     2     6 1   
     7     2    22 1   
     8     3    13 1   
     9     3    23 1   
    10     3    24 1   
    11     4    25 1   
    12     5     6 1   
    13     5     7 1   
    14     5     8 1   
    15     5    26 1   
    16     7     9 1   
    17     7    27 1   
    18     7    28 1   
    19     8    29 1   
    20     9    10 1   
    21     9    30 1   
    22     9    31 1   
    23    10    11 1   
    24    10    32 1   
    25    10    33 1   
    26    11    34 1   
    27    11    35 1   
    28    11    36 1   
    29    12    13 1   
    30    12    14 1   
    31    12    15 1   
    32    12    37 1   
    33    14    16 1   
    34    14    38 1   
    35    14    39 1   
    36    15    40 1   
    37    16    17 1   
    38    16    41 1   
    39    16    42 1   
    40    17    18 1   
    41    17    43 1   
    42    17    44 1   
    43    18    19 1   
    44    18    45 1   
    45    18    46 1   
    46    19    47 1   
    47    19    48 1   
    48    19    49 1   
@<TRIPOS>SUBSTRUCTURE
     1 2WD         1 TEMP              0 ****  ****    0 ROOT
