@<TRIPOS>MOLECULE
2WE
   36    38     1     0     0
SMALL
abcg2


@<TRIPOS>ATOM
      1 O2          -3.4540    -2.3560     0.0470 os         1 2WE      -0.404300
      2 C3          -2.9880    -1.1220     0.0650 cc         1 2WE       0.596300
      3 C4          -3.7960    -0.0020     0.1210 cd         1 2WE      -0.380600
      4 S5          -2.7860     1.3950     0.1210 ss         1 2WE       0.034600
      5 C6          -1.4010     0.3910     0.0370 cd         1 2WE       0.512900
      6 N7          -1.6620    -0.8840     0.0170 nc         1 2WE      -0.721000
      7 C8          -0.0440     0.9330     0.0060 ca         1 2WE      -0.075500
      8 C9           0.2050     2.3050    -0.0630 ca         1 2WE      -0.193000
      9 C10          1.5200     2.7220    -0.0860 ca         1 2WE       0.376900
     10 N11          2.5640     1.9020    -0.0430 nb         1 2WE      -0.667000
     11 C12          2.3260     0.6030     0.0140 ca         1 2WE       0.488900
     12 C13          1.0350     0.0660     0.0400 ca         1 2WE      -0.174000
     13 N14          3.3870    -0.2900     0.0750 ns         1 2WE      -0.328900
     14 C15          4.7170    -0.0730    -0.1730 c          1 2WE       0.643100
     15 O16          5.1830     0.9960    -0.5110 o          1 2WE      -0.535100
     16 C17          5.5500    -1.2900     0.0060 cx         1 2WE      -0.256700
     17 C18          6.7410    -1.4660    -0.9010 cx         1 2WE      -0.094400
     18 C19          6.9550    -1.1050     0.5210 cx         1 2WE      -0.094400
     19 C20         -5.2640     0.0380     0.2010 c          1 2WE       0.660700
     20 O21         -5.9110    -0.9790     0.4080 o          1 2WE      -0.580100
     21 N22         -5.8370     1.2490     0.0600 nt         1 2WE      -0.610000
     22 H1          -0.5890     3.0390    -0.1010 ha         1 2WE       0.128000
     23 H2           1.7460     3.7800    -0.1380 h4         1 2WE       0.028100
     24 H3           0.8820    -1.0040     0.0870 ha         1 2WE       0.142000
     25 H4           3.1260    -1.2450     0.2720 hn         1 2WE       0.155000
     26 H5           5.0380    -2.1950     0.3140 hc         1 2WE       0.083700
     27 H6           6.9620    -2.4750    -1.2190 hc         1 2WE       0.083700
     28 H7           6.9050    -0.7050    -1.6530 hc         1 2WE       0.083700
     29 H8           7.2670    -0.0950     0.7530 hc         1 2WE       0.083700
     30 H9           7.3240    -1.8630     1.1990 hc         1 2WE       0.083700
     31 H10         -5.3470     2.0600    -0.2780 hn         1 2WE       0.311000
     32 H11         -6.8420     1.3120     0.0680 hn         1 2WE       0.311000
     33 C1          -2.5110    -3.4240    -0.0090 c3         1 2WE       0.156900
     34 H12         -3.1000    -4.3370    -0.0110 h1         1 2WE       0.049700
     35 H13         -1.9080    -3.3800    -0.9160 h1         1 2WE       0.049700
     36 H14         -1.8510    -3.4220     0.8580 h1         1 2WE       0.049700
@<TRIPOS>BOND
     1     1     2 1   
     2     1    33 1   
     3     2     3 2   
     4     2     6 1   
     5     3     4 1   
     6     3    19 1   
     7     4     5 1   
     8     5     6 2   
     9     5     7 1   
    10     7     8 ar  
    11     7    12 ar  
    12     8     9 ar  
    13     8    22 1   
    14     9    10 ar  
    15     9    23 1   
    16    10    11 ar  
    17    11    12 ar  
    18    11    13 1   
    19    12    24 1   
    20    13    14 1   
    21    13    25 1   
    22    14    15 2   
    23    14    16 1   
    24    16    17 1   
    25    16    18 1   
    26    16    26 1   
    27    17    18 1   
    28    17    27 1   
    29    17    28 1   
    30    18    29 1   
    31    18    30 1   
    32    19    20 2   
    33    19    21 1   
    34    21    31 1   
    35    21    32 1   
    36    33    34 1   
    37    33    35 1   
    38    33    36 1   
@<TRIPOS>SUBSTRUCTURE
     1 2WE         1 TEMP              0 ****  ****    0 ROOT
