@<TRIPOS>MOLECULE
2WE
   36    38     1     0     0
SMALL
No Charge or Current Charge


@<TRIPOS>ATOM
      1 O2          -3.5730    -2.2870     0.2940 os         1 2WE      -0.404300
      2 C3          -2.9640    -1.0720     0.1800 cc         1 2WE       0.596300
      3 C4          -3.7690     0.0360     0.1860 cd         1 2WE      -0.380600
      4 S5          -2.7600     1.4700     0.0290 ss         1 2WE       0.034600
      5 C6          -1.3550     0.3960    -0.0260 cd         1 2WE       0.512900
      6 N7          -1.6150    -0.9030     0.0640 nc         1 2WE      -0.721000
      7 C8           0.0310     0.9100    -0.1640 ca         1 2WE      -0.075500
      8 C9           0.3180     2.2920    -0.2500 ca         1 2WE      -0.193000
      9 C10          1.6500     2.7260    -0.3650 ca         1 2WE       0.376900
     10 N11          2.7000     1.8780    -0.4070 nb         1 2WE      -0.667000
     11 C12          2.4350     0.5590    -0.3530 ca         1 2WE       0.488900
     12 C13          1.1410     0.0370    -0.2090 ca         1 2WE      -0.174000
     13 N14          3.5510    -0.2890    -0.3380 ns         1 2WE      -0.328900
     14 C15          4.7860    -0.1550    -0.9290 c          1 2WE       0.643100
     15 O16          5.1100     0.7630    -1.6710 o          1 2WE      -0.535100
     16 C17          5.7270    -1.2930    -0.6090 cx         1 2WE      -0.256700
     17 C18          7.1410    -0.9740    -0.1650 cx         1 2WE      -0.094400
     18 C19          6.1450    -1.5150     0.8320 cx         1 2WE      -0.094400
     19 C20         -5.2360     0.0510     0.3020 c          1 2WE       0.660700
     20 O21         -5.9610    -0.9210     0.4110 o          1 2WE      -0.580100
     21 N22         -5.7720     1.2840     0.2790 nt         1 2WE      -0.610000
     22 H1          -0.4690     3.0400    -0.2220 ha         1 2WE       0.128000
     23 H2           1.8830     3.7880    -0.4220 h4         1 2WE       0.028100
     24 H3           1.0100    -1.0400    -0.1400 ha         1 2WE       0.142000
     25 H4           3.4200    -1.1390     0.1920 hn         1 2WE       0.155000
     26 H5           5.5960    -2.1790    -1.2250 hc         1 2WE       0.083700
     27 H6           7.9390    -1.6360    -0.4940 hc         1 2WE       0.083700
     28 H7           7.4300     0.0710    -0.0740 hc         1 2WE       0.083700
     29 H8           5.7710    -0.8310     1.5910 hc         1 2WE       0.083700
     30 H9           6.2750    -2.5400     1.1720 hc         1 2WE       0.083700
     31 H10         -5.1750     2.0900     0.1880 hn         1 2WE       0.311000
     32 H11         -6.7730     1.3880     0.3530 hn         1 2WE       0.311000
     33 C1          -2.7810    -3.4870     0.2940 c3         1 2WE       0.156900
     34 H12         -3.4260    -4.3700     0.3930 h1         1 2WE       0.049700
     35 H13         -2.2140    -3.5820    -0.6410 h1         1 2WE       0.049700
     36 H14         -2.0730    -3.4880     1.1330 h1         1 2WE       0.049700
@<TRIPOS>BOND
     1     1     2 1   
     2     1    33 1   
     3     2     3 2   
     4     2     6 1   
     5     3     4 1   
     6     3    19 1   
     7     4     5 1   
     8     5     6 2   
     9     5     7 1   
    10     7     8 ar  
    11     7    12 ar  
    12     8     9 ar  
    13     8    22 1   
    14     9    10 ar  
    15     9    23 1   
    16    10    11 ar  
    17    11    12 ar  
    18    11    13 1   
    19    12    24 1   
    20    13    14 1   
    21    13    25 1   
    22    14    15 2   
    23    14    16 1   
    24    16    17 1   
    25    16    18 1   
    26    16    26 1   
    27    17    18 1   
    28    17    27 1   
    29    17    28 1   
    30    18    29 1   
    31    18    30 1   
    32    19    20 2   
    33    19    21 1   
    34    21    31 1   
    35    21    32 1   
    36    33    34 1   
    37    33    35 1   
    38    33    36 1   
@<TRIPOS>SUBSTRUCTURE
     1 2WE         1 TEMP              0 ****  ****    0 ROOT
