@<TRIPOS>MOLECULE
2WF
   37    40     1     0     0
SMALL
bcc


@<TRIPOS>ATOM
      1 C1          -3.0350    -1.8490     0.5870 ca         1 2WF      -0.124000
      2 C2          -1.7980    -1.2740     0.6640 ca         1 2WF      -0.097000
      3 C3          -1.5790     0.0670     0.2530 cp         1 2WF      -0.048000
      4 C4          -2.6360     0.7940    -0.2370 ca         1 2WF      -0.077000
      5 C5          -3.9190     0.2190    -0.3340 ca         1 2WF      -0.168300
      6 C6          -4.1310    -1.1150     0.0820 ca         1 2WF      -0.006000
      7 C7          -5.4380    -1.6340    -0.0340 ca         1 2WF      -0.231300
      8 C8          -6.4270    -0.8390    -0.5410 ca         1 2WF       0.394200
      9 N9          -6.2310     0.4370    -0.9450 nb         1 2WF      -0.664000
     10 C10         -5.0290     0.9350    -0.8430 ca         1 2WF       0.432200
     11 C11         -0.2320     0.6610     0.3520 cp         1 2WF       0.034000
     12 C12         -0.0520     2.0060     0.6860 ca         1 2WF      -0.278300
     13 C13          1.2360     2.4960     0.7620 ca         1 2WF       0.440200
     14 N14          2.3280     1.7700     0.5380 nb         1 2WF      -0.675000
     15 C15          2.1610     0.4990     0.2210 ca         1 2WF       0.558200
     16 C16          0.9000    -0.1000     0.1150 ca         1 2WF      -0.297300
     17 N17          3.2650    -0.3060    -0.0270 ns         1 2WF      -0.561400
     18 C18          4.6000    -0.0030     0.0190 c          1 2WF       0.709100
     19 O19          5.0470     1.0940     0.2860 o          1 2WF      -0.534100
     20 C20          5.4700    -1.1690    -0.2920 cx         1 2WF      -0.255700
     21 C21          6.7820    -0.9010    -0.9840 cx         1 2WF      -0.094900
     22 C22          6.7780    -1.2810     0.4500 cx         1 2WF      -0.094900
     23 H1          -3.1840    -2.8690     0.9170 ha         1 2WF       0.138000
     24 H2          -0.9740    -1.8460     1.0700 ha         1 2WF       0.135000
     25 H3          -2.4960     1.8130    -0.5760 ha         1 2WF       0.141000
     26 H4          -5.6530    -2.6490     0.2740 ha         1 2WF       0.142000
     27 H5          -7.4370    -1.2170    -0.6400 h4         1 2WF       0.020100
     28 H6          -4.8860     1.9620    -1.1710 h4         1 2WF       0.020100
     29 H7          -0.8890     2.6530     0.9070 ha         1 2WF       0.145000
     30 H8           1.4040     3.5340     1.0240 h4         1 2WF       0.025100
     31 H9           0.8200    -1.1430    -0.1660 ha         1 2WF       0.138000
     32 H10          3.0430    -1.2620    -0.2620 hn         1 2WF       0.317500
     33 H11          4.9740    -2.1000    -0.5400 hc         1 2WF       0.082700
     34 H12          7.1000    -1.6340    -1.7140 hc         1 2WF       0.083450
     35 H13          7.0060     0.1260    -1.2400 hc         1 2WF       0.083450
     36 H14          6.9970    -0.5150     1.1810 hc         1 2WF       0.083450
     37 H15          7.0940    -2.2780     0.7250 hc         1 2WF       0.083450
@<TRIPOS>BOND
     1     1     2 ar  
     2     1     6 ar  
     3     1    23 1   
     4     2     3 ar  
     5     2    24 1   
     6     3     4 ar  
     7     3    11 1   
     8     4     5 ar  
     9     4    25 1   
    10     5     6 ar  
    11     5    10 ar  
    12     6     7 ar  
    13     7     8 ar  
    14     7    26 1   
    15     8     9 ar  
    16     8    27 1   
    17     9    10 ar  
    18    10    28 1   
    19    11    12 ar  
    20    11    16 ar  
    21    12    13 ar  
    22    12    29 1   
    23    13    14 ar  
    24    13    30 1   
    25    14    15 ar  
    26    15    16 ar  
    27    15    17 1   
    28    16    31 1   
    29    17    18 1   
    30    17    32 1   
    31    18    19 2   
    32    18    20 1   
    33    20    21 1   
    34    20    22 1   
    35    20    33 1   
    36    21    22 1   
    37    21    34 1   
    38    21    35 1   
    39    22    36 1   
    40    22    37 1   
@<TRIPOS>SUBSTRUCTURE
     1 2WF         1 TEMP              0 ****  ****    0 ROOT
