@<TRIPOS>MOLECULE
2WF
   37    40     1     0     0
SMALL
No Charge or Current Charge


@<TRIPOS>ATOM
      1 C1          -3.0290    -1.8920     0.5580 ca         1 2WF      -0.106000
      2 C2          -1.7470    -1.3170     0.5850 ca         1 2WF      -0.079000
      3 C3          -1.5400     0.0380     0.2140 cp         1 2WF      -0.048000
      4 C4          -2.6700     0.7960    -0.1870 ca         1 2WF      -0.059000
      5 C5          -3.9550     0.2220    -0.2160 ca         1 2WF      -0.103000
      6 C6          -4.1330    -1.1220     0.1570 ca         1 2WF      -0.006000
      7 C7          -5.4290    -1.6600     0.1150 ca         1 2WF      -0.148000
      8 C8          -6.4950    -0.8420    -0.2960 ca         1 2WF       0.328900
      9 N9          -6.3350     0.4530    -0.6580 nb         1 2WF      -0.664000
     10 C10         -5.0820     0.9690    -0.6170 ca         1 2WF       0.366900
     11 C11         -0.1720     0.6470     0.2450 cp         1 2WF       0.034000
     12 C12          0.0350     2.0090     0.5600 ca         1 2WF      -0.195000
     13 C13          1.3360     2.5360     0.5920 ca         1 2WF       0.374900
     14 N14          2.4340     1.8000     0.3220 nb         1 2WF      -0.675000
     15 C15          2.2500     0.5080    -0.0080 ca         1 2WF       0.492900
     16 C16          0.9900    -0.1080    -0.0350 ca         1 2WF      -0.214000
     17 N17          3.4110    -0.2430    -0.2280 ns         1 2WF      -0.327900
     18 C18          4.6370     0.1280    -0.7310 c          1 2WF       0.642100
     19 O19          4.9110     1.2410    -1.1580 o          1 2WF      -0.534100
     20 C20          5.6390    -1.0030    -0.7520 cx         1 2WF      -0.255700
     21 C21          7.0330    -0.7580    -0.2070 cx         1 2WF      -0.094900
     22 C22          6.0670    -1.6260     0.5630 cx         1 2WF      -0.094900
     23 H1          -3.1620    -2.9320     0.8500 ha         1 2WF       0.120000
     24 H2          -0.9080    -1.9260     0.9110 ha         1 2WF       0.117000
     25 H3          -2.5450     1.8330    -0.4910 ha         1 2WF       0.123000
     26 H4          -5.6170    -2.6930     0.3940 ha         1 2WF       0.124000
     27 H5          -7.5110    -1.2350    -0.3370 h4         1 2WF       0.020100
     28 H6          -4.9820     2.0120    -0.9130 h4         1 2WF       0.020100
     29 H7          -0.8000     2.6580     0.8040 ha         1 2WF       0.127000
     30 H8           1.5040     3.5820     0.8500 h4         1 2WF       0.025100
     31 H9           0.9200    -1.1600    -0.2910 ha         1 2WF       0.120000
     32 H10          3.3280    -1.2190     0.0200 hn         1 2WF       0.151000
     33 H11          5.5590    -1.6680    -1.6080 hc         1 2WF       0.082700
     34 H12          7.8680    -1.2480    -0.7050 hc         1 2WF       0.083450
     35 H13          7.2640     0.2250     0.2000 hc         1 2WF       0.083450
     36 H14          5.6540    -1.2230     1.4860 hc         1 2WF       0.083450
     37 H15          6.2530    -2.6980     0.5820 hc         1 2WF       0.083450
@<TRIPOS>BOND
     1     1     2 ar  
     2     1     6 ar  
     3     1    23 1   
     4     2     3 ar  
     5     2    24 1   
     6     3     4 ar  
     7     3    11 1   
     8     4     5 ar  
     9     4    25 1   
    10     5     6 ar  
    11     5    10 ar  
    12     6     7 ar  
    13     7     8 ar  
    14     7    26 1   
    15     8     9 ar  
    16     8    27 1   
    17     9    10 ar  
    18    10    28 1   
    19    11    12 ar  
    20    11    16 ar  
    21    12    13 ar  
    22    12    29 1   
    23    13    14 ar  
    24    13    30 1   
    25    14    15 ar  
    26    15    16 ar  
    27    15    17 1   
    28    16    31 1   
    29    17    18 1   
    30    17    32 1   
    31    18    19 2   
    32    18    20 1   
    33    20    21 1   
    34    20    22 1   
    35    20    33 1   
    36    21    22 1   
    37    21    34 1   
    38    21    35 1   
    39    22    36 1   
    40    22    37 1   
@<TRIPOS>SUBSTRUCTURE
     1 2WF         1 TEMP              0 ****  ****    0 ROOT
