@<TRIPOS>MOLECULE
2WG
   38    40     1     0     0
SMALL
No Charge or Current Charge


@<TRIPOS>ATOM
      1 C1           4.3650     2.8540    -0.0980 c3         1 2WG       0.156900
      2 O2           4.5850     1.4300    -0.1680 os         1 2WG      -0.426300
      3 C3           3.5380     0.5330    -0.1190 ca         1 2WG       0.402300
      4 C4           3.7890    -0.8570    -0.1900 ca         1 2WG      -0.290600
      5 C5           2.6570    -1.6980    -0.1320 ca         1 2WG       0.153900
      6 N6           1.4100    -1.2120    -0.0160 nb         1 2WG      -0.208000
      7 C7           1.2600     0.1240     0.0450 cp         1 2WG       0.244500
      8 N8           2.2780     1.0030    -0.0020 nb         1 2WG      -0.277000
      9 C9          -0.1380     0.6730     0.1760 cp         1 2WG      -0.091500
     10 C10         -0.4040     2.0670     0.2480 ca         1 2WG      -0.156000
     11 C11         -1.7240     2.5360     0.3580 ca         1 2WG       0.357900
     12 N12         -2.7970     1.7170     0.4070 nb         1 2WG      -0.663000
     13 C13         -2.5660     0.3910     0.3680 ca         1 2WG       0.477900
     14 C14         -1.2840    -0.1650     0.2320 ca         1 2WG      -0.173000
     15 N15         -3.7020    -0.4290     0.3600 ns         1 2WG      -0.327900
     16 C16         -4.9340    -0.2580     0.9500 c          1 2WG       0.642100
     17 O17         -5.2350     0.6740     1.6830 o          1 2WG      -0.538100
     18 C18         -5.9030    -1.3760     0.6400 cx         1 2WG      -0.254700
     19 C19         -6.3230    -1.6030    -0.8000 cx         1 2WG      -0.095400
     20 C20         -7.3080    -1.0260     0.1900 cx         1 2WG      -0.095400
     21 C21          5.1700    -1.4370    -0.3200 c          1 2WG       0.638700
     22 O22          6.1930    -0.7780    -0.3770 o          1 2WG      -0.575100
     23 N23          5.2760    -2.7810    -0.3780 nt         1 2WG      -0.607000
     24 H1           5.3200     3.3910    -0.1530 h1         1 2WG       0.054367
     25 H2           3.7350     3.1950    -0.9300 h1         1 2WG       0.054367
     26 H3           3.8750     3.1290     0.8450 h1         1 2WG       0.054367
     27 H4           2.7330    -2.7820    -0.1780 h4         1 2WG       0.029100
     28 H5           0.4000     2.7960     0.2140 ha         1 2WG       0.143000
     29 H6          -1.9290     3.6050     0.4020 h4         1 2WG       0.026100
     30 H7          -1.1890    -1.2460     0.1750 ha         1 2WG       0.142000
     31 H8          -3.5930    -1.2870    -0.1620 hn         1 2WG       0.153000
     32 H9          -5.7950    -2.2580     1.2660 hc         1 2WG       0.083700
     33 H10         -5.9310    -0.9370    -1.5660 hc         1 2WG       0.082700
     34 H11         -6.4790    -2.6280    -1.1290 hc         1 2WG       0.082700
     35 H12         -8.1230    -1.6640     0.5240 hc         1 2WG       0.082700
     36 H13         -7.5700     0.0260     0.0860 hc         1 2WG       0.082700
     37 H14          6.1920    -3.1970    -0.4650 hn         1 2WG       0.315500
     38 H15          4.4530    -3.3610    -0.3340 hn         1 2WG       0.315500
@<TRIPOS>BOND
     1     1     2 1   
     2     1    24 1   
     3     1    25 1   
     4     1    26 1   
     5     2     3 1   
     6     3     4 ar  
     7     3     8 ar  
     8     4     5 ar  
     9     4    21 1   
    10     5     6 ar  
    11     5    27 1   
    12     6     7 ar  
    13     7     8 ar  
    14     7     9 1   
    15     9    10 ar  
    16     9    14 ar  
    17    10    11 ar  
    18    10    28 1   
    19    11    12 ar  
    20    11    29 1   
    21    12    13 ar  
    22    13    14 ar  
    23    13    15 1   
    24    14    30 1   
    25    15    16 1   
    26    15    31 1   
    27    16    17 2   
    28    16    18 1   
    29    18    19 1   
    30    18    20 1   
    31    18    32 1   
    32    19    20 1   
    33    19    33 1   
    34    19    34 1   
    35    20    35 1   
    36    20    36 1   
    37    21    22 2   
    38    21    23 1   
    39    23    37 1   
    40    23    38 1   
@<TRIPOS>SUBSTRUCTURE
     1 2WG         1 TEMP              0 ****  ****    0 ROOT
