@<TRIPOS>MOLECULE
2WG
   38    40     1     0     0
SMALL
abcg2


@<TRIPOS>ATOM
      1 C1           4.3020     2.6840     0.0310 c3         1 2WG       0.156900
      2 O2           4.5390     1.2830    -0.1130 os         1 2WG      -0.426300
      3 C3           3.5070     0.4700    -0.1490 ca         1 2WG       0.402300
      4 C4           3.7420    -0.9140    -0.2490 ca         1 2WG      -0.290600
      5 C5           2.6090    -1.7010    -0.2580 ca         1 2WG       0.153900
      6 N6           1.3750    -1.2110    -0.1780 nb         1 2WG      -0.208000
      7 C7           1.2710     0.1020    -0.0810 cp         1 2WG       0.244500
      8 N8           2.2880     0.9560    -0.0610 nb         1 2WG      -0.277000
      9 C9          -0.0890     0.6790     0.0180 cp         1 2WG      -0.091500
     10 C10         -0.2800     2.0520     0.1760 ca         1 2WG      -0.156000
     11 C11         -1.5760     2.5180     0.2660 ca         1 2WG       0.357900
     12 N12         -2.6560     1.7440     0.2070 nb         1 2WG      -0.663000
     13 C13         -2.4710     0.4440     0.0620 ca         1 2WG       0.477900
     14 C14         -1.2030    -0.1390    -0.0360 ca         1 2WG      -0.173000
     15 N15         -3.5670    -0.4080    -0.0190 ns         1 2WG      -0.327900
     16 C16         -4.8880    -0.1530     0.2300 c          1 2WG       0.642100
     17 O17         -5.3220     0.9200     0.5980 o          1 2WG      -0.538100
     18 C18         -5.7610    -1.3360     0.0070 cx         1 2WG      -0.254700
     19 C19         -7.1530    -1.0860    -0.5150 cx         1 2WG      -0.095400
     20 C20         -6.9660    -1.4960     0.8980 cx         1 2WG      -0.095400
     21 C21          5.1110    -1.4910    -0.4070 c          1 2WG       0.638700
     22 O22          5.9130    -1.0240    -1.1970 o          1 2WG      -0.575100
     23 N23          5.3510    -2.5640     0.3580 nt         1 2WG      -0.607000
     24 H1           5.2840     3.1480     0.0130 h1         1 2WG       0.054367
     25 H2           3.6980     3.0720    -0.7890 h1         1 2WG       0.054367
     26 H3           3.8090     2.9080     0.9760 h1         1 2WG       0.054367
     27 H4           2.6940    -2.7790    -0.3460 h4         1 2WG       0.029100
     28 H5           0.5550     2.7350     0.2260 ha         1 2WG       0.143000
     29 H6          -1.7610     3.5790     0.3890 h4         1 2WG       0.026100
     30 H7          -1.0940    -1.2090    -0.1490 ha         1 2WG       0.142000
     31 H8          -3.3410    -1.3620    -0.2530 hn         1 2WG       0.153000
     32 H9          -5.2770    -2.2480    -0.3230 hc         1 2WG       0.083700
     33 H10         -7.4270    -0.0590    -0.7170 hc         1 2WG       0.082700
     34 H11         -7.5430    -1.8080    -1.2190 hc         1 2WG       0.082700
     35 H12         -7.2260    -2.5070     1.1830 hc         1 2WG       0.082700
     36 H13         -7.1110    -0.7540     1.6710 hc         1 2WG       0.082700
     37 H14          6.2440    -3.0280     0.3110 hn         1 2WG       0.315500
     38 H15          4.7220    -2.8530     1.0890 hn         1 2WG       0.315500
@<TRIPOS>BOND
     1     1     2 1   
     2     1    24 1   
     3     1    25 1   
     4     1    26 1   
     5     2     3 1   
     6     3     4 ar  
     7     3     8 ar  
     8     4     5 ar  
     9     4    21 1   
    10     5     6 ar  
    11     5    27 1   
    12     6     7 ar  
    13     7     8 ar  
    14     7     9 1   
    15     9    10 ar  
    16     9    14 ar  
    17    10    11 ar  
    18    10    28 1   
    19    11    12 ar  
    20    11    29 1   
    21    12    13 ar  
    22    13    14 ar  
    23    13    15 1   
    24    14    30 1   
    25    15    16 1   
    26    15    31 1   
    27    16    17 2   
    28    16    18 1   
    29    18    19 1   
    30    18    20 1   
    31    18    32 1   
    32    19    20 1   
    33    19    33 1   
    34    19    34 1   
    35    20    35 1   
    36    20    36 1   
    37    21    22 2   
    38    21    23 1   
    39    23    37 1   
    40    23    38 1   
@<TRIPOS>SUBSTRUCTURE
     1 2WG         1 TEMP              0 ****  ****    0 ROOT
