@<TRIPOS>MOLECULE
2WH
   55    58     1     0     0
SMALL
No Charge or Current Charge


@<TRIPOS>ATOM
      1 C1         -12.5500     0.3430    -1.3680 c3         1 2WH      -0.091100
      2 C2         -11.2640    -0.0030    -0.5910 c3         1 2WH      -0.097400
      3 C3         -10.1860     1.0950    -0.6910 c3         1 2WH       0.070600
      4 N4          -8.9620     0.7600     0.0510 na         1 2WH      -0.164500
      5 C5          -7.9060     0.0050    -0.4120 cc         1 2WH      -0.220000
      6 C6          -7.0090    -0.0370     0.6220 cd         1 2WH       0.233300
      7 N7          -7.4800     0.6650     1.7100 nd         1 2WH      -0.670000
      8 C8          -8.6630     1.1390     1.3430 cc         1 2WH       0.395400
      9 C9          -5.6780    -0.7360     0.6470 c3         1 2WH      -0.106700
     10 C10         -4.5030     0.2480     0.5140 c3         1 2WH       0.120000
     11 N11         -3.2130    -0.4440     0.5170 ns         1 2WH      -0.529900
     12 C12         -2.0090     0.1830     0.3200 c          1 2WH       0.661100
     13 O13         -1.9250     1.3840     0.1250 o          1 2WH      -0.564100
     14 N14         -0.9570    -0.6920     0.3710 ns         1 2WH      -0.430400
     15 C15          0.3900    -0.4450     0.2220 cc         1 2WH       0.512800
     16 N16          0.8830     0.7780    -0.0100 nd         1 2WH      -0.556100
     17 C17          2.2640     0.6700    -0.1070 ca         1 2WH       0.135400
     18 C18          3.1180     1.7550    -0.3460 ca         1 2WH      -0.066000
     19 C19          4.5090     1.5390    -0.4250 ca         1 2WH      -0.092000
     20 C20          5.0650     0.2380    -0.2680 cp         1 2WH      -0.040000
     21 C21          4.1710    -0.8390    -0.0280 ca         1 2WH      -0.051000
     22 C22          2.7920    -0.5930     0.0470 ca         1 2WH      -0.184000
     23 S23          1.5490    -1.7930     0.3390 ss         1 2WH      -0.050200
     24 C24          6.5440     0.0110    -0.3540 cp         1 2WH      -0.046000
     25 C25          7.4730     0.9960     0.0710 ca         1 2WH      -0.108000
     26 C26          8.8500     0.7410    -0.0280 ca         1 2WH       0.092100
     27 C27          9.2700    -0.5060    -0.5560 ca         1 2WH       0.254900
     28 N28          8.4060    -1.4640    -0.9690 nb         1 2WH      -0.639000
     29 C29          7.0800    -1.2030    -0.8650 ca         1 2WH       0.306900
     30 O30          9.7310     1.7190     0.3980 os         1 2WH      -0.335100
     31 C31         11.1570     1.5360     0.3320 c3         1 2WH       0.146900
     32 H1         -13.2850    -0.4640    -1.2680 hc         1 2WH       0.038367
     33 H2         -12.9990     1.2660    -0.9830 hc         1 2WH       0.038367
     34 H3         -12.3330     0.4800    -2.4340 hc         1 2WH       0.038367
     35 H4         -11.5160    -0.1680     0.4640 hc         1 2WH       0.053200
     36 H5         -10.8560    -0.9470    -0.9740 hc         1 2WH       0.053200
     37 H6          -9.9230     1.2540    -1.7450 h1         1 2WH       0.060700
     38 H7         -10.5880     2.0400    -0.3010 h1         1 2WH       0.060700
     39 H8          -7.8700    -0.4310    -1.4030 h4         1 2WH       0.157000
     40 H9          -9.3320     1.7430     1.9450 h5         1 2WH       0.055100
     41 H10         -5.5720    -1.3020     1.5800 hc         1 2WH       0.048200
     42 H11         -5.6290    -1.4650    -0.1710 hc         1 2WH       0.048200
     43 H12         -4.6040     0.8120    -0.4240 h1         1 2WH       0.064200
     44 H13         -4.5260     0.9630     1.3480 h1         1 2WH       0.064200
     45 H14         -3.2070    -1.4440     0.6750 hn         1 2WH       0.308500
     46 H15         -1.2140    -1.6510     0.5430 hn         1 2WH       0.324500
     47 H16          2.7090     2.7540    -0.4710 ha         1 2WH       0.139000
     48 H17          5.1570     2.3890    -0.6260 ha         1 2WH       0.121000
     49 H18          4.5430    -1.8510     0.1120 ha         1 2WH       0.126000
     50 H19          7.1330     1.9400     0.4860 ha         1 2WH       0.135000
     51 H20         10.3250    -0.7560    -0.6550 h4         1 2WH       0.022100
     52 H21          6.4180    -1.9920    -1.2190 h4         1 2WH       0.023100
     53 H22         11.4680     0.6740     0.9360 h1         1 2WH       0.043700
     54 H23         11.4820     1.3760    -0.7040 h1         1 2WH       0.043700
     55 H24         11.6730     2.4250     0.7170 h1         1 2WH       0.043700
@<TRIPOS>BOND
     1     1     2 1   
     2     1    32 1   
     3     1    33 1   
     4     1    34 1   
     5     2     3 1   
     6     2    35 1   
     7     2    36 1   
     8     3     4 1   
     9     3    37 1   
    10     3    38 1   
    11     4     5 1   
    12     4     8 1   
    13     5     6 2   
    14     5    39 1   
    15     6     7 1   
    16     6     9 1   
    17     7     8 2   
    18     8    40 1   
    19     9    10 1   
    20     9    41 1   
    21     9    42 1   
    22    10    11 1   
    23    10    43 1   
    24    10    44 1   
    25    11    12 1   
    26    11    45 1   
    27    12    13 2   
    28    12    14 1   
    29    14    15 1   
    30    14    46 1   
    31    15    16 2   
    32    15    23 1   
    33    16    17 1   
    34    17    18 ar  
    35    17    22 ar  
    36    18    19 ar  
    37    18    47 1   
    38    19    20 ar  
    39    19    48 1   
    40    20    21 ar  
    41    20    24 1   
    42    21    22 ar  
    43    21    49 1   
    44    22    23 1   
    45    24    25 ar  
    46    24    29 ar  
    47    25    26 ar  
    48    25    50 1   
    49    26    27 ar  
    50    26    30 1   
    51    27    28 ar  
    52    27    51 1   
    53    28    29 ar  
    54    29    52 1   
    55    30    31 1   
    56    31    53 1   
    57    31    54 1   
    58    31    55 1   
@<TRIPOS>SUBSTRUCTURE
     1 2WH         1 TEMP              0 ****  ****    0 ROOT
