@<TRIPOS>MOLECULE
2WH
   55    58     1     0     0
SMALL
abcg2


@<TRIPOS>ATOM
      1 C1         -12.4630     0.3960    -1.1410 c3         1 2WH      -0.091100
      2 C2         -11.1270     0.0120    -0.5210 c3         1 2WH      -0.097400
      3 C3         -10.1380     1.1680    -0.5720 c3         1 2WH       0.070600
      4 N4          -8.8670     0.8480     0.0460 na         1 2WH      -0.164500
      5 C5          -7.8990     0.0230    -0.4550 cc         1 2WH      -0.220000
      6 C6          -6.9160    -0.0250     0.4950 cd         1 2WH       0.233300
      7 N7          -7.2710     0.7520     1.5630 nd         1 2WH      -0.670000
      8 C8          -8.4410     1.2540     1.2590 cc         1 2WH       0.395400
      9 C9          -5.6180    -0.7560     0.4450 c3         1 2WH      -0.106700
     10 C10         -4.4360     0.2050     0.3680 c3         1 2WH       0.120000
     11 N11         -3.1940    -0.5410     0.3710 ns         1 2WH      -0.529900
     12 C12         -2.0010     0.0730     0.3000 c          1 2WH       0.661100
     13 O13         -1.8590     1.2770     0.2250 o          1 2WH      -0.564100
     14 N14         -0.9290    -0.8230     0.3380 ns         1 2WH      -0.430400
     15 C15          0.3850    -0.5060     0.1830 cc         1 2WH       0.512800
     16 N16          0.8730     0.6340    -0.1500 nd         1 2WH      -0.556100
     17 C17          2.2430     0.5780    -0.2150 ca         1 2WH       0.135400
     18 C18          3.0830     1.6390    -0.5460 ca         1 2WH      -0.066000
     19 C19          4.4490     1.4350    -0.5740 ca         1 2WH      -0.092000
     20 C20          5.0170     0.1870    -0.2760 cp         1 2WH      -0.040000
     21 C21          4.1840    -0.8800     0.0550 ca         1 2WH      -0.051000
     22 C22          2.8160    -0.6690     0.0790 ca         1 2WH      -0.184000
     23 S23          1.5550    -1.7980     0.4610 ss         1 2WH      -0.050200
     24 C24          6.4790     0.0060    -0.3120 cp         1 2WH      -0.046000
     25 C25          7.3450     1.0110     0.0930 ca         1 2WH      -0.108000
     26 C26          8.7200     0.8010     0.0370 ca         1 2WH       0.092100
     27 C27          9.1800    -0.4330    -0.4210 ca         1 2WH       0.254900
     28 N28          8.3520    -1.3950    -0.8120 nb         1 2WH      -0.639000
     29 C29          7.0490    -1.1890    -0.7640 ca         1 2WH       0.306900
     30 O30          9.5060     1.8090     0.4430 os         1 2WH      -0.335100
     31 C31         10.9100     1.6250     0.4100 c3         1 2WH       0.146900
     32 H1         -13.1670    -0.4340    -1.0920 hc         1 2WH       0.038367
     33 H2         -12.9130     1.2420    -0.6190 hc         1 2WH       0.038367
     34 H3         -12.3520     0.6730    -2.1900 hc         1 2WH       0.038367
     35 H4         -11.2710    -0.2880     0.5200 hc         1 2WH       0.053200
     36 H5         -10.7090    -0.8510    -1.0440 hc         1 2WH       0.053200
     37 H6          -9.9560     1.4720    -1.6040 h1         1 2WH       0.060700
     38 H7         -10.5440     2.0360    -0.0510 h1         1 2WH       0.060700
     39 H8          -7.9810    -0.4450    -1.4230 h4         1 2WH       0.157000
     40 H9          -9.0300     1.9130     1.8790 h5         1 2WH       0.055100
     41 H10         -5.5120    -1.3860     1.3350 hc         1 2WH       0.048200
     42 H11         -5.6080    -1.4230    -0.4200 hc         1 2WH       0.048200
     43 H12         -4.5150     0.8110    -0.5380 h1         1 2WH       0.064200
     44 H13         -4.4650     0.8880     1.2200 h1         1 2WH       0.064200
     45 H14         -3.2490    -1.5470     0.3590 hn         1 2WH       0.308500
     46 H15         -1.1410    -1.7940     0.5160 hn         1 2WH       0.324500
     47 H16          2.6630     2.6060    -0.7870 ha         1 2WH       0.139000
     48 H17          5.0920     2.2600    -0.8510 ha         1 2WH       0.121000
     49 H18          4.5970    -1.8460     0.3130 ha         1 2WH       0.126000
     50 H19          6.9680     1.9530     0.4720 ha         1 2WH       0.135000
     51 H20         10.2380    -0.6600    -0.4790 h4         1 2WH       0.022100
     52 H21          6.4180    -1.9970    -1.1170 h4         1 2WH       0.023100
     53 H22         11.2270     0.8100     1.0650 h1         1 2WH       0.043700
     54 H23         11.2720     1.4300    -0.6020 h1         1 2WH       0.043700
     55 H24         11.3500     2.5530     0.7660 h1         1 2WH       0.043700
@<TRIPOS>BOND
     1     1     2 1   
     2     1    32 1   
     3     1    33 1   
     4     1    34 1   
     5     2     3 1   
     6     2    35 1   
     7     2    36 1   
     8     3     4 1   
     9     3    37 1   
    10     3    38 1   
    11     4     5 1   
    12     4     8 1   
    13     5     6 2   
    14     5    39 1   
    15     6     7 1   
    16     6     9 1   
    17     7     8 2   
    18     8    40 1   
    19     9    10 1   
    20     9    41 1   
    21     9    42 1   
    22    10    11 1   
    23    10    43 1   
    24    10    44 1   
    25    11    12 1   
    26    11    45 1   
    27    12    13 2   
    28    12    14 1   
    29    14    15 1   
    30    14    46 1   
    31    15    16 2   
    32    15    23 1   
    33    16    17 1   
    34    17    18 ar  
    35    17    22 ar  
    36    18    19 ar  
    37    18    47 1   
    38    19    20 ar  
    39    19    48 1   
    40    20    21 ar  
    41    20    24 1   
    42    21    22 ar  
    43    21    49 1   
    44    22    23 1   
    45    24    25 ar  
    46    24    29 ar  
    47    25    26 ar  
    48    25    50 1   
    49    26    27 ar  
    50    26    30 1   
    51    27    28 ar  
    52    27    51 1   
    53    28    29 ar  
    54    29    52 1   
    55    30    31 1   
    56    31    53 1   
    57    31    54 1   
    58    31    55 1   
@<TRIPOS>SUBSTRUCTURE
     1 2WH         1 TEMP              0 ****  ****    0 ROOT
