@<TRIPOS>MOLECULE
2WI
   44    47     1     0     0
SMALL
No Charge or Current Charge


@<TRIPOS>ATOM
      1 C4         197.8020    -1.4340  -168.2670 ca         1 2WI       0.348900
      2 C6         198.2860    -1.3520  -170.4880 ca         1 2WI       0.500000
      3 C7         196.9900    -1.6870  -170.8580 ca         1 2WI      -0.136300
      4 C8         196.9570    -1.7310  -172.3660 cx         1 2WI      -0.210000
      5 C10        195.8560    -1.1840  -173.2500 cx         1 2WI      -0.074900
      6 N12        199.0860    -1.1980  -171.6130 ne         1 2WI      -0.593700
      7 C13        195.5550    -2.0840  -167.3450 cp         1 2WI      -0.137000
      8 C15        194.3690    -1.2800  -165.3670 ca         1 2WI      -0.216000
      9 C17        194.2240    -3.6290  -165.9650 ca         1 2WI      -0.276600
     10 C20        193.7130    -5.0120  -165.7440 c          1 2WI       0.628700
     11 C24        195.1790    -5.2270  -163.7070 c3         1 2WI       0.084300
     12 C11        198.3950    -1.4250  -172.6940 c2         1 2WI       0.443200
     13 C14        195.2090    -1.0380  -166.4640 ca         1 2WI      -0.016000
     14 C16        193.8740    -2.5650  -165.1210 ca         1 2WI       0.372000
     15 C18        195.0510    -3.3810  -167.0740 ca         1 2WI       0.263000
     16 C2         196.0160    -1.9450  -169.8640 ca         1 2WI       0.019700
     17 C23        193.4040    -6.9520  -164.1890 c3         1 2WI       0.084300
     18 C3         196.4530    -1.8190  -168.5090 cp         1 2WI      -0.083000
     19 C9         196.1210    -2.6750  -173.2030 cx         1 2WI      -0.074900
     20 F19        195.4120    -4.4100  -167.8750 f          1 2WI      -0.165000
     21 N22        194.0040    -5.6390  -164.5100 n          1 2WI      -0.416800
     22 N25        193.0230    -2.7360  -164.0680 nv         1 2WI      -1.086000
     23 N5         198.7190    -1.2080  -169.2330 nb         1 2WI      -0.622000
     24 O21        193.0010    -5.5550  -166.5790 o          1 2WI      -0.574100
     25 H1         198.1590    -1.3270  -167.2440 h4         1 2WI       0.022100
     26 H2         196.1460    -0.6550  -174.1550 hc         1 2WI       0.082950
     27 H3         194.9550    -0.7980  -172.7860 hc         1 2WI       0.082950
     28 H4         194.0970    -0.4570  -164.7130 ha         1 2WI       0.121000
     29 H5         194.8790    -4.4890  -162.9530 h1         1 2WI       0.042700
     30 H6         195.6120    -6.0960  -163.1950 h1         1 2WI       0.042700
     31 H7         195.9520    -4.7900  -164.3530 h1         1 2WI       0.042700
     32 H8         194.5310    -3.4050  -170.4930 hc         1 2WI       0.054033
     33 H9         193.8990    -2.2100  -169.3590 hc         1 2WI       0.054033
     34 H10        194.1650    -1.7530  -171.0190 hc         1 2WI       0.054033
     35 H11        198.7920    -1.3660  -173.7040 h4         1 2WI       0.040800
     36 H12        195.5840    -0.0320  -166.6430 ha         1 2WI       0.122000
     37 H13        193.5540    -7.1880  -163.1270 h1         1 2WI       0.042700
     38 H14        192.3250    -6.9310  -164.3930 h1         1 2WI       0.042700
     39 H15        193.8720    -7.7330  -164.8010 h1         1 2WI       0.042700
     40 H16        195.3880    -3.3050  -172.7080 hc         1 2WI       0.082950
     41 H17        196.5860    -3.1320  -174.0740 hc         1 2WI       0.082950
     42 H18        192.8220    -3.6790  -163.7430 hn         1 2WI       0.471000
     43 H19        192.9070    -1.9820  -163.3950 hn         1 2WI       0.471000
     44 C1         194.5810    -2.3490  -170.2050 c3         1 2WI      -0.058800
@<TRIPOS>BOND
     1     1    18 ar  
     2     1    23 ar  
     3     1    25 1   
     4     2     3 ar  
     5     2     6 1   
     6     2    23 ar  
     7     3     4 1   
     8     3    16 ar  
     9     4     5 1   
    10     4    12 1   
    11     4    19 1   
    12     5    19 1   
    13     5    26 1   
    14     5    27 1   
    15     6    12 2   
    16     7    13 ar  
    17     7    15 ar  
    18     7    18 1   
    19     8    13 ar  
    20     8    14 ar  
    21     8    28 1   
    22     9    10 1   
    23     9    14 ar  
    24     9    15 ar  
    25    10    21 1   
    26    10    24 2   
    27    11    21 1   
    28    11    29 1   
    29    11    30 1   
    30    11    31 1   
    31    12    35 1   
    32    13    36 1   
    33    14    22 1   
    34    15    20 1   
    35    16    18 ar  
    36    16    44 1   
    37    17    21 1   
    38    17    37 1   
    39    17    38 1   
    40    17    39 1   
    41    19    40 1   
    42    19    41 1   
    43    22    42 1   
    44    22    43 1   
    45    32    44 1   
    46    33    44 1   
    47    34    44 1   
@<TRIPOS>SUBSTRUCTURE
     1 2WI         1 TEMP              0 ****  ****    0 ROOT
