@<TRIPOS>MOLECULE
2WI
   44    47     1     0     0
SMALL
bcc


@<TRIPOS>ATOM
      1 C4         197.7390    -1.4000  -168.2710 ca         1 2WI       0.414200
      2 C6         198.2150    -1.3540  -170.4520 ca         1 2WI       0.565300
      3 C7         196.9180    -1.7460  -170.8120 ca         1 2WI      -0.201600
      4 C8         196.9360    -1.8050  -172.2830 cx         1 2WI      -0.210000
      5 C10        195.8290    -1.3630  -173.2310 cx         1 2WI      -0.074900
      6 N12        199.0450    -1.1730  -171.5660 ne         1 2WI      -0.593700
      7 C13        195.5480    -2.0230  -167.3310 cp         1 2WI      -0.137000
      8 C15        194.4250    -1.1920  -165.3450 ca         1 2WI      -0.234000
      9 C17        194.2360    -3.5250  -165.9100 ca         1 2WI      -0.276600
     10 C20        193.6420    -4.8940  -165.7470 c          1 2WI       0.695700
     11 C24        195.1920    -5.3030  -163.8620 c3         1 2WI       0.084300
     12 C11        198.3230    -1.4360  -172.5930 c2         1 2WI       0.443200
     13 C14        195.2220    -0.9890  -166.4530 ca         1 2WI      -0.034000
     14 C16        193.9060    -2.4620  -165.0520 ca         1 2WI       0.233600
     15 C18        195.0340    -3.2670  -167.0100 ca         1 2WI       0.227900
     16 C2         195.9780    -1.9900  -169.8230 ca         1 2WI       0.019700
     17 C23        193.4220    -6.8980  -164.4200 c3         1 2WI       0.084300
     18 C3         196.4260    -1.8130  -168.5000 cp         1 2WI      -0.148300
     19 C9         196.1820    -2.7900  -173.1600 cx         1 2WI      -0.074900
     20 F19        195.3540    -4.3080  -167.7950 f          1 2WI      -0.129900
     21 N22        194.0290    -5.6060  -164.6700 n          1 2WI      -0.483800
     22 N25        193.0660    -2.6370  -163.9890 nv         1 2WI      -0.837200
     23 N5         198.6390    -1.1690  -169.2190 nb         1 2WI      -0.622000
     24 O21        192.8130    -5.2960  -166.5490 o          1 2WI      -0.574100
     25 H1         198.0720    -1.2620  -167.2480 h4         1 2WI       0.022100
     26 H2         196.1440    -0.7900  -174.0940 hc         1 2WI       0.082950
     27 H3         194.9110    -1.0190  -172.7770 hc         1 2WI       0.082950
     28 H4         194.1860    -0.3600  -164.6940 ha         1 2WI       0.139000
     29 H5         194.9190    -5.2320  -162.8080 h1         1 2WI       0.042700
     30 H6         195.9380    -6.0930  -163.9680 h1         1 2WI       0.042700
     31 H7         195.6500    -4.3670  -164.1660 h1         1 2WI       0.042700
     32 H8         194.5230    -3.4930  -170.2980 hc         1 2WI       0.054033
     33 H9         193.8890    -2.1670  -169.3320 hc         1 2WI       0.054033
     34 H10        194.2050    -1.9370  -171.0420 hc         1 2WI       0.054033
     35 H11        198.7140    -1.3770  -173.6040 h4         1 2WI       0.040800
     36 H12        195.6010     0.0050  -166.6530 ha         1 2WI       0.140000
     37 H13        193.4370    -7.0940  -163.3490 h1         1 2WI       0.042700
     38 H14        192.3910    -6.9140  -164.7590 h1         1 2WI       0.042700
     39 H15        193.9680    -7.7010  -164.9220 h1         1 2WI       0.042700
     40 H16        195.5150    -3.4690  -172.6460 hc         1 2WI       0.082950
     41 H17        196.7380    -3.2320  -173.9770 hc         1 2WI       0.082950
     42 H18        192.9330    -3.5630  -163.6190 hn         1 2WI       0.415800
     43 H19        193.0750    -1.9230  -163.2800 hn         1 2WI       0.415800
     44 C1         194.5770    -2.4150  -170.1380 c3         1 2WI      -0.058800
@<TRIPOS>BOND
     1     1    18 ar  
     2     1    23 ar  
     3     1    25 1   
     4     2     3 ar  
     5     2     6 1   
     6     2    23 ar  
     7     3     4 1   
     8     3    16 ar  
     9     4     5 1   
    10     4    12 1   
    11     4    19 1   
    12     5    19 1   
    13     5    26 1   
    14     5    27 1   
    15     6    12 2   
    16     7    13 ar  
    17     7    15 ar  
    18     7    18 1   
    19     8    13 ar  
    20     8    14 ar  
    21     8    28 1   
    22     9    10 1   
    23     9    14 ar  
    24     9    15 ar  
    25    10    21 1   
    26    10    24 2   
    27    11    21 1   
    28    11    29 1   
    29    11    30 1   
    30    11    31 1   
    31    12    35 1   
    32    13    36 1   
    33    14    22 1   
    34    15    20 1   
    35    16    18 ar  
    36    16    44 1   
    37    17    21 1   
    38    17    37 1   
    39    17    38 1   
    40    17    39 1   
    41    19    40 1   
    42    19    41 1   
    43    22    42 1   
    44    22    43 1   
    45    32    44 1   
    46    33    44 1   
    47    34    44 1   
@<TRIPOS>SUBSTRUCTURE
     1 2WI         1 TEMP              0 ****  ****    0 ROOT
