@<TRIPOS>MOLECULE
2WJ
   30    32     1     0     0
SMALL
abcg2


@<TRIPOS>ATOM
      1 C1           6.5070    -0.2100     0.0780 c3         1 2WJ      -0.184100
      2 C2           5.1510     0.4310    -0.0400 c          1 2WJ       0.607100
      3 O3           4.9790     1.5950    -0.3090 o          1 2WJ      -0.511100
      4 N4           4.1130    -0.4600     0.1600 ns         1 2WJ      -0.421400
      5 C5           2.7740    -0.1920     0.0790 cc         1 2WJ       0.488800
      6 N6           2.2340     0.9450    -0.1690 nd         1 2WJ      -0.553100
      7 C7           0.8640     0.8420    -0.1680 ca         1 2WJ       0.128400
      8 C8          -0.0270     1.8890    -0.3950 ca         1 2WJ      -0.062000
      9 C9          -1.3840     1.6370    -0.3580 ca         1 2WJ      -0.095000
     10 C10         -1.8920     0.3550    -0.0960 cp         1 2WJ      -0.033000
     11 C11         -1.0080    -0.6970     0.1320 ca         1 2WJ      -0.055000
     12 C12          0.3520    -0.4390     0.0910 ca         1 2WJ      -0.183000
     13 S13          1.6690    -1.5370     0.3450 ss         1 2WJ      -0.035200
     14 C14         -3.3470     0.1260    -0.0640 cp         1 2WJ      -0.086000
     15 C15         -4.2280     1.0630     0.4720 ca         1 2WJ      -0.064000
     16 C16         -5.5860     0.7950     0.4740 ca         1 2WJ      -0.163000
     17 C17         -6.0270    -0.4080    -0.0560 ca         1 2WJ       0.337900
     18 N18         -5.2040    -1.3120    -0.5740 nb         1 2WJ      -0.665000
     19 C19         -3.9060    -1.0450    -0.5780 ca         1 2WJ       0.344900
     20 H1           6.7780    -0.6540    -0.8820 hc         1 2WJ       0.067033
     21 H2           7.2510     0.5440     0.3220 hc         1 2WJ       0.067033
     22 H3           6.5370    -0.9990     0.8280 hc         1 2WJ       0.067033
     23 H4           4.3740    -1.4100     0.3780 hn         1 2WJ       0.330500
     24 H5           0.3480     2.8820    -0.6050 ha         1 2WJ       0.139000
     25 H6          -2.0710     2.4500    -0.5540 ha         1 2WJ       0.119000
     26 H7          -1.3740    -1.6900     0.3600 ha         1 2WJ       0.127000
     27 H8          -3.8570     1.9860     0.9000 ha         1 2WJ       0.122000
     28 H9          -6.2930     1.5020     0.8880 ha         1 2WJ       0.125000
     29 H10         -7.0830    -0.6500    -0.0630 h4         1 2WJ       0.020100
     30 H11         -3.2650    -1.7960    -1.0300 h4         1 2WJ       0.020100
@<TRIPOS>BOND
     1     1     2 1   
     2     1    20 1   
     3     1    21 1   
     4     1    22 1   
     5     2     3 2   
     6     2     4 1   
     7     4     5 1   
     8     4    23 1   
     9     5     6 2   
    10     5    13 1   
    11     6     7 1   
    12     7     8 ar  
    13     7    12 ar  
    14     8     9 ar  
    15     8    24 1   
    16     9    10 ar  
    17     9    25 1   
    18    10    11 ar  
    19    10    14 1   
    20    11    12 ar  
    21    11    26 1   
    22    12    13 1   
    23    14    15 ar  
    24    14    19 ar  
    25    15    16 ar  
    26    15    27 1   
    27    16    17 ar  
    28    16    28 1   
    29    17    18 ar  
    30    17    29 1   
    31    18    19 ar  
    32    19    30 1   
@<TRIPOS>SUBSTRUCTURE
     1 2WJ         1 TEMP              0 ****  ****    0 ROOT
