@<TRIPOS>MOLECULE
2WJ
   30    32     1     0     0
SMALL
No Charge or Current Charge


@<TRIPOS>ATOM
      1 C1           6.5780    -0.1970     0.0760 c3         1 2WJ      -0.184100
      2 C2           5.1970     0.4390    -0.0340 c          1 2WJ       0.607100
      3 O3           5.0630     1.6400    -0.2180 o          1 2WJ      -0.511100
      4 N4           4.1580    -0.4570     0.0930 ns         1 2WJ      -0.421400
      5 C5           2.7970    -0.2350     0.0470 cc         1 2WJ       0.488800
      6 N6           2.2700     0.9810    -0.1430 nd         1 2WJ      -0.553100
      7 C7           0.8880     0.8510    -0.1360 ca         1 2WJ       0.128400
      8 C8           0.0010     1.9240    -0.3060 ca         1 2WJ      -0.062000
      9 C9          -1.3880     1.6850    -0.2820 ca         1 2WJ      -0.095000
     10 C10         -1.9110     0.3750    -0.0880 cp         1 2WJ      -0.033000
     11 C11         -0.9840    -0.6880     0.0790 ca         1 2WJ      -0.055000
     12 C12          0.3930    -0.4200     0.0510 ca         1 2WJ      -0.183000
     13 S13          1.6720    -1.6020     0.2450 ss         1 2WJ      -0.035200
     14 C14         -3.3880     0.1250    -0.0650 cp         1 2WJ      -0.086000
     15 C15         -4.2980     1.0920     0.4280 ca         1 2WJ      -0.064000
     16 C16         -5.6730     0.8030     0.4260 ca         1 2WJ      -0.163000
     17 C17         -6.1130    -0.4360    -0.0650 ca         1 2WJ       0.337900
     18 N18         -5.2680    -1.3780    -0.5410 nb         1 2WJ      -0.665000
     19 C19         -3.9430    -1.0960    -0.5360 ca         1 2WJ       0.344900
     20 H1           6.6620    -1.0000    -0.6650 hc         1 2WJ       0.067033
     21 H2           7.3870     0.5340    -0.0280 hc         1 2WJ       0.067033
     22 H3           6.6470    -0.7430     1.0240 hc         1 2WJ       0.067033
     23 H4           4.4510    -1.4120     0.2410 hn         1 2WJ       0.330500
     24 H5           0.3840     2.9290    -0.4580 ha         1 2WJ       0.139000
     25 H6          -2.0630     2.5250    -0.4290 ha         1 2WJ       0.119000
     26 H7          -1.3290    -1.7060     0.2430 ha         1 2WJ       0.127000
     27 H8          -3.9470     2.0440     0.8190 ha         1 2WJ       0.122000
     28 H9          -6.3920     1.5250     0.8010 ha         1 2WJ       0.125000
     29 H10         -7.1740    -0.6840    -0.0760 h4         1 2WJ       0.020100
     30 H11         -3.2980    -1.8760    -0.9390 h4         1 2WJ       0.020100
@<TRIPOS>BOND
     1     1     2 1   
     2     1    20 1   
     3     1    21 1   
     4     1    22 1   
     5     2     3 2   
     6     2     4 1   
     7     4     5 1   
     8     4    23 1   
     9     5     6 2   
    10     5    13 1   
    11     6     7 1   
    12     7     8 ar  
    13     7    12 ar  
    14     8     9 ar  
    15     8    24 1   
    16     9    10 ar  
    17     9    25 1   
    18    10    11 ar  
    19    10    14 1   
    20    11    12 ar  
    21    11    26 1   
    22    12    13 1   
    23    14    15 ar  
    24    14    19 ar  
    25    15    16 ar  
    26    15    27 1   
    27    16    17 ar  
    28    16    28 1   
    29    17    18 ar  
    30    17    29 1   
    31    18    19 ar  
    32    19    30 1   
@<TRIPOS>SUBSTRUCTURE
     1 2WJ         1 TEMP              0 ****  ****    0 ROOT
