@<TRIPOS>MOLECULE
2WK
   38    40     1     0     0
SMALL
No Charge or Current Charge


@<TRIPOS>ATOM
      1 C1           7.8920    -0.1340     0.2240 c3         1 2WK      -0.185100
      2 C2           6.5060     0.4400    -0.0460 c          1 2WK       0.607100
      3 O3           6.3610     1.5650    -0.5010 o          1 2WK      -0.510100
      4 N4           5.4770    -0.4200     0.2680 ns         1 2WK      -0.422400
      5 C5           4.1140    -0.2350     0.1550 cc         1 2WK       0.487800
      6 N6           3.5760     0.8970    -0.3140 nd         1 2WK      -0.552100
      7 C7           2.1950     0.7510    -0.2960 ca         1 2WK       0.125400
      8 C8           1.2980     1.7430    -0.7180 ca         1 2WK      -0.062000
      9 C9          -0.0880     1.4960    -0.6580 ca         1 2WK      -0.098000
     10 C10         -0.5980     0.2560    -0.1780 cp         1 2WK      -0.022000
     11 C11          0.3390    -0.7270     0.2400 ca         1 2WK      -0.059000
     12 C12          1.7120    -0.4510     0.1700 ca         1 2WK      -0.180000
     13 S13          3.0020    -1.5380     0.6440 ss         1 2WK      -0.037200
     14 C14         -2.0710    -0.0050    -0.1170 cp         1 2WK      -0.089000
     15 C15         -2.9960     1.0330     0.1570 ca         1 2WK      -0.141000
     16 C16         -4.3770     0.7360     0.2030 ca         1 2WK       0.074100
     17 C17         -4.7900    -0.6070    -0.0310 ca         1 2WK       0.571300
     18 N18         -3.9160    -1.6090    -0.2940 nb         1 2WK      -0.736000
     19 C19         -2.5990    -1.3060    -0.3320 ca         1 2WK       0.352900
     20 O20         -6.1410    -0.8970     0.0140 os         1 2WK      -0.441300
     21 C21         -6.6310    -2.2330    -0.2130 c3         1 2WK       0.156900
     22 O22         -5.3290     1.7120     0.4700 os         1 2WK      -0.313100
     23 C23         -4.9800     3.0860     0.7130 c3         1 2WK       0.142900
     24 H1           7.9990    -1.0840    -0.3130 hc         1 2WK       0.067367
     25 H2           8.6950     0.5660    -0.0330 hc         1 2WK       0.067367
     26 H3           7.9520    -0.4490     1.2720 hc         1 2WK       0.067367
     27 H4           5.7780    -1.3110     0.6340 hn         1 2WK       0.329500
     28 H5           1.6720     2.6940    -1.0900 ha         1 2WK       0.137000
     29 H6          -0.7710     2.2680    -1.0020 ha         1 2WK       0.118000
     30 H7           0.0020    -1.6860     0.6260 ha         1 2WK       0.126000
     31 H8          -2.6320     2.0390     0.3440 ha         1 2WK       0.127000
     32 H9          -1.9340    -2.1380    -0.5590 h4         1 2WK       0.024100
     33 H10         -7.7250    -2.2560    -0.1350 h1         1 2WK       0.046033
     34 H11         -6.3550    -2.5870    -1.2150 h1         1 2WK       0.046033
     35 H12         -6.2240    -2.9320     0.5290 h1         1 2WK       0.046033
     36 H13         -5.8840     3.6800     0.8980 h1         1 2WK       0.042700
     37 H14         -4.3300     3.1750     1.5920 h1         1 2WK       0.042700
     38 H15         -4.4630     3.5170    -0.1540 h1         1 2WK       0.042700
@<TRIPOS>BOND
     1     1     2 1   
     2     1    24 1   
     3     1    25 1   
     4     1    26 1   
     5     2     3 2   
     6     2     4 1   
     7     4     5 1   
     8     4    27 1   
     9     5     6 2   
    10     5    13 1   
    11     6     7 1   
    12     7     8 ar  
    13     7    12 ar  
    14     8     9 ar  
    15     8    28 1   
    16     9    10 ar  
    17     9    29 1   
    18    10    11 ar  
    19    10    14 1   
    20    11    12 ar  
    21    11    30 1   
    22    12    13 1   
    23    14    15 ar  
    24    14    19 ar  
    25    15    16 ar  
    26    15    31 1   
    27    16    17 ar  
    28    16    22 1   
    29    17    18 ar  
    30    17    20 1   
    31    18    19 ar  
    32    19    32 1   
    33    20    21 1   
    34    21    33 1   
    35    21    34 1   
    36    21    35 1   
    37    22    23 1   
    38    23    36 1   
    39    23    37 1   
    40    23    38 1   
@<TRIPOS>SUBSTRUCTURE
     1 2WK         1 TEMP              0 ****  ****    0 ROOT
