@<TRIPOS>MOLECULE
2WK
   38    40     1     0     0
SMALL
bcc


@<TRIPOS>ATOM
      1 C1           7.7910    -0.1220     0.2760 c3         1 2WK      -0.185100
      2 C2           6.4360     0.4300    -0.0710 c          1 2WK       0.674100
      3 O3           6.2530     1.4930    -0.6140 o          1 2WK      -0.510100
      4 N4           5.4050    -0.4140     0.2990 ns         1 2WK      -0.489400
      5 C5           4.0640    -0.1940     0.1430 cc         1 2WK       0.487800
      6 N6           3.5140     0.8520    -0.3560 nd         1 2WK      -0.552100
      7 C7           2.1450     0.7300    -0.3480 ca         1 2WK       0.125400
      8 C8           1.2430     1.6880    -0.8050 ca         1 2WK      -0.080000
      9 C9          -0.1110     1.4300    -0.7270 ca         1 2WK      -0.116000
     10 C10         -0.6080     0.2280    -0.1980 cp         1 2WK      -0.022000
     11 C11          0.2880    -0.7320     0.2650 ca         1 2WK      -0.077000
     12 C12          1.6450    -0.4700     0.1790 ca         1 2WK      -0.053100
     13 S13          2.9720    -1.4660     0.6820 ss         1 2WK      -0.164100
     14 C14         -2.0590    -0.0200    -0.1370 cp         1 2WK      -0.154300
     15 C15         -2.9630     1.0140     0.1640 ca         1 2WK      -0.159000
     16 C16         -4.3140     0.7550     0.2140 ca         1 2WK       0.008800
     17 C17         -4.7330    -0.5730    -0.0420 ca         1 2WK       0.636600
     18 N18         -3.8970    -1.5340    -0.3270 nb         1 2WK      -0.736000
     19 C19         -2.5880    -1.2720    -0.3790 ca         1 2WK       0.418200
     20 O20         -6.0440    -0.8040     0.0240 os         1 2WK      -0.418100
     21 C21         -6.4920    -2.1290    -0.2200 c3         1 2WK       0.133700
     22 O22         -5.2790     1.6410     0.4970 os         1 2WK      -0.289900
     23 C23         -4.8920     2.9740     0.7750 c3         1 2WK       0.119700
     24 H1           7.9660    -1.0670    -0.2410 hc         1 2WK       0.067367
     25 H2           8.5650     0.5840    -0.0110 hc         1 2WK       0.067367
     26 H3           7.8670    -0.3170     1.3470 hc         1 2WK       0.067367
     27 H4           5.6750    -1.2820     0.7390 hn         1 2WK       0.329500
     28 H5           1.6060     2.6190    -1.2200 ha         1 2WK       0.155000
     29 H6          -0.8040     2.1720    -1.1020 ha         1 2WK       0.136000
     30 H7          -0.0670    -1.6550     0.7050 ha         1 2WK       0.144000
     31 H8          -2.5830     2.0050     0.3770 ha         1 2WK       0.145000
     32 H9          -1.9470    -2.1050    -0.6440 h4         1 2WK       0.024100
     33 H10         -7.5720    -2.1040    -0.1020 h1         1 2WK       0.046033
     34 H11         -6.2470    -2.4600    -1.2300 h1         1 2WK       0.046033
     35 H12         -6.0670    -2.8380     0.4910 h1         1 2WK       0.046033
     36 H13         -5.8080     3.5260     0.9710 h1         1 2WK       0.042700
     37 H14         -4.2480     3.0340     1.6550 h1         1 2WK       0.042700
     38 H15         -4.3760     3.4320    -0.0730 h1         1 2WK       0.042700
@<TRIPOS>BOND
     1     1     2 1   
     2     1    24 1   
     3     1    25 1   
     4     1    26 1   
     5     2     3 2   
     6     2     4 1   
     7     4     5 1   
     8     4    27 1   
     9     5     6 2   
    10     5    13 1   
    11     6     7 1   
    12     7     8 ar  
    13     7    12 ar  
    14     8     9 ar  
    15     8    28 1   
    16     9    10 ar  
    17     9    29 1   
    18    10    11 ar  
    19    10    14 1   
    20    11    12 ar  
    21    11    30 1   
    22    12    13 1   
    23    14    15 ar  
    24    14    19 ar  
    25    15    16 ar  
    26    15    31 1   
    27    16    17 ar  
    28    16    22 1   
    29    17    18 ar  
    30    17    20 1   
    31    18    19 ar  
    32    19    32 1   
    33    20    21 1   
    34    21    33 1   
    35    21    34 1   
    36    21    35 1   
    37    22    23 1   
    38    23    36 1   
    39    23    37 1   
    40    23    38 1   
@<TRIPOS>SUBSTRUCTURE
     1 2WK         1 TEMP              0 ****  ****    0 ROOT
