@<TRIPOS>MOLECULE
2WL
   48    51     1     0     0
SMALL
bcc


@<TRIPOS>ATOM
      1 CL1          5.6320    -1.5340    -1.0950 cl         1 2WL      -0.106400
      2 C2           5.6420     0.0330    -0.3500 ca         1 2WL       0.017400
      3 C3           6.8510     0.6990    -0.2340 ca         1 2WL      -0.109000
      4 C4           6.9040     1.9220     0.4190 ca         1 2WL      -0.138000
      5 C5           5.7430     2.4630     0.9500 ca         1 2WL      -0.110000
      6 C6           4.5340     1.7990     0.8090 ca         1 2WL      -0.167000
      7 C1           4.4490     0.5680     0.1540 ca         1 2WL       0.137600
      8 N1           3.2470    -0.1360     0.0120 nh         1 2WL      -0.641000
      9 C10          2.6680    -0.1270    -1.3270 c6         1 2WL       0.163300
     10 C9           1.6020    -1.2030    -1.4260 c6         1 2WL       0.089500
     11 C7           2.2350     0.0780     1.0280 c6         1 2WL       0.163300
     12 C8           1.1680    -1.0030     0.9310 c6         1 2WL       0.089500
     13 N4           0.5880    -1.0170    -0.4020 n          1 2WL      -0.451800
     14 C21         -0.6200    -0.5120    -0.7430 c          1 2WL       0.610600
     15 O1          -0.8930    -0.1940    -1.8980 o          1 2WL      -0.619100
     16 C11         -1.6750    -0.3670     0.2830 cc         1 2WL       0.236800
     17 C20         -2.7570     0.4620     0.1270 cd         1 2WL      -0.180600
     18 N2          -1.7860    -1.0560     1.4600 nc         1 2WL      -0.656000
     19 C12         -2.9000    -0.6460     2.0000 cd         1 2WL       0.385400
     20 N3          -3.5210     0.2810     1.2340 na         1 2WL      -0.187900
     21 C13         -4.7870     0.9350     1.5170 c3         1 2WL       0.092600
     22 C14         -5.8510     0.5440     0.5260 ca         1 2WL      -0.124300
     23 C15         -6.3450     1.4740    -0.3800 ca         1 2WL      -0.105500
     24 C19         -6.3420    -0.7590     0.4990 ca         1 2WL      -0.105500
     25 C18         -7.3120    -1.1240    -0.4220 ca         1 2WL      -0.126500
     26 C17         -7.8030    -0.1890    -1.3260 ca         1 2WL      -0.111000
     27 C16         -7.3190     1.1110    -1.3030 ca         1 2WL      -0.126500
     28 H1           7.7510     0.2530    -0.6350 ha         1 2WL       0.146000
     29 H2           7.8500     2.4360     0.5210 ha         1 2WL       0.136000
     30 H3           5.7720     3.4130     1.4670 ha         1 2WL       0.133000
     31 H4           3.6370     2.2480     1.2140 ha         1 2WL       0.134000
     32 H5           2.2270     0.8550    -1.5580 h1         1 2WL       0.045200
     33 H6           3.4370    -0.3200    -2.0730 h1         1 2WL       0.045200
     34 H7           1.1450    -1.1950    -2.4110 h1         1 2WL       0.073450
     35 H8           2.0660    -2.1820    -1.2730 h1         1 2WL       0.073450
     36 H9           2.6970     0.0280     2.0150 h1         1 2WL       0.045200
     37 H10          1.7460     1.0610     0.9400 h1         1 2WL       0.045200
     38 H11          1.6180    -1.9810     1.1270 h1         1 2WL       0.073450
     39 H12          0.4070    -0.8380     1.6850 h1         1 2WL       0.073450
     40 H13         -3.0280     1.1480    -0.6580 h4         1 2WL       0.194000
     41 H14         -3.3110    -0.9800     2.9410 h5         1 2WL       0.056100
     42 H15         -5.0750     0.6560     2.5310 h1         1 2WL       0.066200
     43 H16         -4.6340     2.0140     1.5100 h1         1 2WL       0.066200
     44 H17         -5.9690     2.4900    -0.3680 ha         1 2WL       0.132000
     45 H18         -5.9670    -1.4950     1.2010 ha         1 2WL       0.132000
     46 H19         -7.6890    -2.1390    -0.4330 ha         1 2WL       0.136000
     47 H20         -8.5620    -0.4730    -2.0440 ha         1 2WL       0.135000
     48 H21         -7.6970     1.8440    -2.0040 ha         1 2WL       0.136000
@<TRIPOS>BOND
     1     1     2 1   
     2     2     3 ar  
     3     2     7 ar  
     4     3     4 ar  
     5     3    28 1   
     6     4     5 ar  
     7     4    29 1   
     8     5     6 ar  
     9     5    30 1   
    10     6     7 ar  
    11     6    31 1   
    12     7     8 1   
    13     8     9 1   
    14     8    11 1   
    15     9    10 1   
    16     9    32 1   
    17     9    33 1   
    18    10    13 1   
    19    10    34 1   
    20    10    35 1   
    21    11    12 1   
    22    11    36 1   
    23    11    37 1   
    24    12    13 1   
    25    12    38 1   
    26    12    39 1   
    27    13    14 1   
    28    14    15 2   
    29    14    16 1   
    30    16    17 2   
    31    16    18 1   
    32    17    20 1   
    33    17    40 1   
    34    18    19 2   
    35    19    20 1   
    36    19    41 1   
    37    20    21 1   
    38    21    22 1   
    39    21    42 1   
    40    21    43 1   
    41    22    23 ar  
    42    22    24 ar  
    43    23    27 ar  
    44    23    44 1   
    45    24    25 ar  
    46    24    45 1   
    47    25    26 ar  
    48    25    46 1   
    49    26    27 ar  
    50    26    47 1   
    51    27    48 1   
@<TRIPOS>SUBSTRUCTURE
     1 2WL         1 TEMP              0 ****  ****    0 ROOT
