@<TRIPOS>MOLECULE
2WL
   48    51     1     0     0
SMALL
No Charge or Current Charge


@<TRIPOS>ATOM
      1 Cl1          4.1500    -1.7340    -1.8810 cl         1 2WL      -0.198000
      2 C2           5.1690    -0.9080    -0.6920 ca         1 2WL       0.109000
      3 C3           6.4980    -1.3410    -0.5420 ca         1 2WL      -0.091000
      4 C4           7.3410    -0.7290     0.4000 ca         1 2WL      -0.120000
      5 C5           6.8550     0.3200     1.1960 ca         1 2WL      -0.092000
      6 C6           5.5260     0.7560     1.0510 ca         1 2WL      -0.149000
      7 C1           4.6650     0.1520     0.1100 ca         1 2WL       0.276000
      8 N1           3.3280     0.6120    -0.0260 nh         1 2WL      -0.779400
      9 C10          2.9500     1.4240    -1.2020 c6         1 2WL       0.163300
     10 C9           1.4550     1.2260    -1.5610 c6         1 2WL       0.089500
     11 C7           2.5400     1.0230     1.1570 c6         1 2WL       0.163300
     12 C8           1.0110     0.8610     0.9260 c6         1 2WL       0.089500
     13 N4           0.4730     1.2610    -0.4210 n          1 2WL      -0.384800
     14 C21         -0.9210     1.3200    -0.7300 c          1 2WL       0.543600
     15 O1          -1.2610     1.5860    -1.8820 o          1 2WL      -0.619100
     16 C11         -1.9650     1.0500     0.3460 cc         1 2WL       0.171500
     17 C20         -3.3030     1.1330     0.0400 cd         1 2WL      -0.148000
     18 N2          -1.8080     0.6940     1.6720 nc         1 2WL      -0.656000
     19 C12         -3.0270     0.5640     2.1780 cd         1 2WL       0.385400
     20 N3          -3.9780     0.8240     1.2080 na         1 2WL      -0.166500
     21 C13         -5.4370     0.7740     1.3840 c3         1 2WL       0.121900
     22 C14         -6.1360    -0.2270     0.4670 ca         1 2WL      -0.124300
     23 C15         -7.3220     0.1380    -0.2020 ca         1 2WL      -0.087500
     24 C19         -5.6160    -1.5260     0.2860 ca         1 2WL      -0.087500
     25 C18         -6.2680    -2.4410    -0.5590 ca         1 2WL      -0.108500
     26 C17         -7.4470    -2.0680    -1.2260 ca         1 2WL      -0.093000
     27 C16         -7.9730    -0.7780    -1.0460 ca         1 2WL      -0.108500
     28 H1           6.8740    -2.1550    -1.1580 ha         1 2WL       0.128000
     29 H2           8.3690    -1.0660     0.5120 ha         1 2WL       0.118000
     30 H3           7.5070     0.7970     1.9250 ha         1 2WL       0.115000
     31 H4           5.1690     1.5750     1.6680 ha         1 2WL       0.116000
     32 H5           3.1280     2.4890    -0.9910 h1         1 2WL       0.045200
     33 H6           3.5640     1.1600    -2.0760 h1         1 2WL       0.045200
     34 H7           1.1850     1.9890    -2.3040 h1         1 2WL       0.073450
     35 H8           1.3550     0.2510    -2.0580 h1         1 2WL       0.073450
     36 H9           2.8270     0.4310     2.0390 h1         1 2WL       0.045200
     37 H10          2.7490     2.0770     1.3910 h1         1 2WL       0.045200
     38 H11          0.7480    -0.1910     1.1020 h1         1 2WL       0.073450
     39 H12          0.5250     1.4620     1.7050 h1         1 2WL       0.073450
     40 H13         -3.7980     1.3750    -0.8930 h4         1 2WL       0.176000
     41 H14         -3.2880     0.2920     3.1950 h5         1 2WL       0.056100
     42 H15         -5.6590     0.5140     2.4270 h1         1 2WL       0.066200
     43 H16         -5.8360     1.7810     1.2060 h1         1 2WL       0.066200
     44 H17         -7.7400     1.1340    -0.0700 ha         1 2WL       0.114000
     45 H18         -4.7060    -1.8300     0.7990 ha         1 2WL       0.114000
     46 H19         -5.8600    -3.4410    -0.6950 ha         1 2WL       0.118000
     47 H20         -7.9510    -2.7760    -1.8790 ha         1 2WL       0.117000
     48 H21         -8.8870    -0.4870    -1.5600 ha         1 2WL       0.118000
@<TRIPOS>BOND
     1     1     2 1   
     2     2     3 ar  
     3     2     7 ar  
     4     3     4 ar  
     5     3    28 1   
     6     4     5 ar  
     7     4    29 1   
     8     5     6 ar  
     9     5    30 1   
    10     6     7 ar  
    11     6    31 1   
    12     7     8 1   
    13     8     9 1   
    14     8    11 1   
    15     9    10 1   
    16     9    32 1   
    17     9    33 1   
    18    10    13 1   
    19    10    34 1   
    20    10    35 1   
    21    11    12 1   
    22    11    36 1   
    23    11    37 1   
    24    12    13 1   
    25    12    38 1   
    26    12    39 1   
    27    13    14 1   
    28    14    15 2   
    29    14    16 1   
    30    16    17 2   
    31    16    18 1   
    32    17    20 1   
    33    17    40 1   
    34    18    19 2   
    35    19    20 1   
    36    19    41 1   
    37    20    21 1   
    38    21    22 1   
    39    21    42 1   
    40    21    43 1   
    41    22    23 ar  
    42    22    24 ar  
    43    23    27 ar  
    44    23    44 1   
    45    24    25 ar  
    46    24    45 1   
    47    25    26 ar  
    48    25    46 1   
    49    26    27 ar  
    50    26    47 1   
    51    27    48 1   
@<TRIPOS>SUBSTRUCTURE
     1 2WL         1 TEMP              0 ****  ****    0 ROOT
