@<TRIPOS>MOLECULE
2WM
  122   121     1     0     0
SMALL
No Charge or Current Charge


@<TRIPOS>ATOM
      1 CBF         20.3640     6.6890    -1.1310 c3         1 2WM      -0.088100
      2 CBE         19.4980     5.7340    -0.2870 c3         1 2WM      -0.075400
      3 CBD         18.1370     5.4130    -0.9420 c3         1 2WM      -0.075400
      4 CBC         17.2690     4.4550    -0.0960 c3         1 2WM      -0.074400
      5 CBB         15.9090     4.1340    -0.7520 c3         1 2WM      -0.074400
      6 CBA         15.0410     3.1770     0.0940 c3         1 2WM      -0.074400
      7 CAZ         13.6810     2.8550    -0.5620 c3         1 2WM      -0.073400
      8 CAY         12.8130     1.8970     0.2840 c3         1 2WM      -0.074400
      9 CAX         11.4530     1.5750    -0.3720 c3         1 2WM      -0.073400
     10 CAW         10.5860     0.6170     0.4740 c3         1 2WM      -0.074400
     11 CAV          9.2250     0.2950    -0.1820 c3         1 2WM      -0.073400
     12 CAU          8.3580    -0.6640     0.6640 c3         1 2WM      -0.074400
     13 CAT          6.9980    -0.9860     0.0080 c3         1 2WM      -0.073400
     14 CAS          6.1310    -1.9440     0.8540 c3         1 2WM      -0.075400
     15 CAR          4.7710    -2.2670     0.1980 c3         1 2WM      -0.074400
     16 CAQ          3.9040    -3.2260     1.0450 c3         1 2WM      -0.072400
     17 CAP          2.5410    -3.5500     0.3850 c3         1 2WM      -0.104400
     18 CAO          1.6730    -4.5400     1.1910 c3         1 2WM       0.384300
     19 OAD          1.2430    -3.9280     2.3950 oh         1 2WM      -0.684000
     20 OAN          0.5260    -4.8360     0.3910 os         1 2WM      -0.464000
     21 CAM         -0.1940    -6.0700     0.6750 c3         1 2WM       0.186300
     22 CAL         -0.7570    -6.0890     2.1320 c3         1 2WM       0.143600
     23 OAK         -1.3970    -4.8410     2.4480 oh         1 2WM      -0.690000
     24 CBI         -1.3180    -6.2050    -0.3890 c3         1 2WM       0.172600
     25 OBJ         -2.3280    -5.1930    -0.1560 os         1 2WM      -0.454000
     26 CBK         -3.4250    -5.2090    -1.0680 c3         1 2WM       0.380300
     27 OCC         -2.9700    -4.7840    -2.3430 oh         1 2WM      -0.683000
     28 CBL         -4.4750    -4.2170    -0.5240 c3         1 2WM      -0.105400
     29 CBM         -5.7970    -4.1950    -1.3290 c3         1 2WM      -0.073400
     30 CBN         -6.8470    -3.2280    -0.7380 c3         1 2WM      -0.074400
     31 CBO         -8.1680    -3.2080    -1.5380 c3         1 2WM      -0.075400
     32 CBP         -9.2180    -2.2410    -0.9470 c3         1 2WM      -0.071400
     33 CBQ        -10.5390    -2.2200    -1.7430 c3         1 2WM      -0.041200
     34 CBR        -11.5490    -1.2610    -1.1470 c2         1 2WM      -0.218200
     35 CBS        -12.0160    -0.1560    -1.7490 c2         1 2WM      -0.218200
     36 CBT        -13.0280     0.8010    -1.1540 c3         1 2WM      -0.040200
     37 CBU        -12.4280     2.2010    -0.9080 c3         1 2WM      -0.072400
     38 CBV        -13.4390     3.1960    -0.2970 c3         1 2WM      -0.075400
     39 CBW        -12.8360     4.5970    -0.0530 c3         1 2WM      -0.074400
     40 CBX        -13.8470     5.5920     0.5580 c3         1 2WM      -0.074400
     41 CBY        -13.2450     6.9930     0.8020 c3         1 2WM      -0.075400
     42 CBZ        -14.2560     7.9880     1.4120 c3         1 2WM      -0.075400
     43 CCA        -13.6540     9.3890     1.6550 c3         1 2WM      -0.074400
     44 CCB        -14.6620    10.3820     2.2640 c3         1 2WM      -0.088100
     45 H1          20.5800     6.2520    -2.1130 hc         1 2WM       0.031367
     46 H2          19.8510     7.6460    -1.2820 hc         1 2WM       0.031367
     47 H3          21.3170     6.8870    -0.6260 hc         1 2WM       0.031367
     48 H4          20.0520     4.8010    -0.1230 hc         1 2WM       0.036700
     49 H5          19.3300     6.1830     0.7000 hc         1 2WM       0.036700
     50 H6          17.5870     6.3480    -1.1060 hc         1 2WM       0.036700
     51 H7          18.3100     4.9650    -1.9290 hc         1 2WM       0.036700
     52 H8          17.8200     3.5210     0.0680 hc         1 2WM       0.036700
     53 H9          17.0970     4.9030     0.8900 hc         1 2WM       0.036700
     54 H10         15.3580     5.0690    -0.9160 hc         1 2WM       0.036700
     55 H11         16.0810     3.6860    -1.7390 hc         1 2WM       0.036700
     56 H12         15.5920     2.2420     0.2580 hc         1 2WM       0.036700
     57 H13         14.8680     3.6240     1.0810 hc         1 2WM       0.036700
     58 H14         13.1300     3.7890    -0.7260 hc         1 2WM       0.037700
     59 H15         13.8530     2.4070    -1.5490 hc         1 2WM       0.037700
     60 H16         13.3640     0.9620     0.4480 hc         1 2WM       0.036700
     61 H17         12.6410     2.3440     1.2710 hc         1 2WM       0.036700
     62 H18         10.9020     2.5090    -0.5360 hc         1 2WM       0.037700
     63 H19         11.6260     1.1270    -1.3590 hc         1 2WM       0.037700
     64 H20         11.1370    -0.3180     0.6380 hc         1 2WM       0.036700
     65 H21         10.4130     1.0640     1.4610 hc         1 2WM       0.036700
     66 H22          8.6740     1.2290    -0.3460 hc         1 2WM       0.037700
     67 H23          9.3980    -0.1530    -1.1690 hc         1 2WM       0.037700
     68 H24          8.9100    -1.5980     0.8280 hc         1 2WM       0.036700
     69 H25          8.1850    -0.2160     1.6510 hc         1 2WM       0.036700
     70 H26          6.4470    -0.0520    -0.1560 hc         1 2WM       0.037700
     71 H27          7.1710    -1.4340    -0.9790 hc         1 2WM       0.037700
     72 H28          6.6830    -2.8790     1.0190 hc         1 2WM       0.037700
     73 H29          5.9580    -1.4970     1.8410 hc         1 2WM       0.037700
     74 H30          4.2190    -1.3330     0.0340 hc         1 2WM       0.038700
     75 H31          4.9440    -2.7140    -0.7890 hc         1 2WM       0.038700
     76 H32          4.4550    -4.1600     1.2090 hc         1 2WM       0.043700
     77 H33          3.7340    -2.7770     2.0310 hc         1 2WM       0.043700
     78 H34          1.9800    -2.6210     0.2290 hc         1 2WM       0.057200
     79 H35          2.7250    -3.9810    -0.6070 hc         1 2WM       0.057200
     80 H36          2.2490    -5.4470     1.4160 h2         1 2WM       0.053700
     81 H37          0.2910    -4.1900     2.4630 ho         1 2WM       0.453000
     82 H38          0.4800    -6.9280     0.5560 h1         1 2WM       0.034700
     83 H39         -1.4730    -6.9170     2.2260 h1         1 2WM       0.022700
     84 H40          0.0590    -6.2890     2.8380 h1         1 2WM       0.022700
     85 H41         -1.9490    -4.6350     1.6510 ho         1 2WM       0.493000
     86 H42         -0.8770    -6.1050    -1.3900 h1         1 2WM       0.031200
     87 H43         -1.7610    -7.2070    -0.3150 h1         1 2WM       0.031200
     88 H44         -3.8650    -6.2120    -1.1470 h2         1 2WM       0.054700
     89 H45         -2.3900    -4.0180    -2.1540 ho         1 2WM       0.450000
     90 H46         -4.7010    -4.4910     0.5130 hc         1 2WM       0.059200
     91 H47         -4.0450    -3.2080    -0.4990 hc         1 2WM       0.059200
     92 H48         -5.5890    -3.9060    -2.3670 hc         1 2WM       0.042700
     93 H49         -6.2170    -5.2090    -1.3580 hc         1 2WM       0.042700
     94 H50         -7.0590    -3.5160     0.2990 hc         1 2WM       0.039200
     95 H51         -6.4270    -2.2150    -0.7110 hc         1 2WM       0.039200
     96 H52         -7.9570    -2.9200    -2.5760 hc         1 2WM       0.037700
     97 H53         -8.5880    -4.2220    -1.5650 hc         1 2WM       0.037700
     98 H54         -9.4280    -2.5270     0.0910 hc         1 2WM       0.040200
     99 H55         -8.8000    -1.2260    -0.9220 hc         1 2WM       0.040200
    100 H56        -10.3240    -1.9480    -2.7840 hc         1 2WM       0.042700
    101 H57        -10.9620    -3.2320    -1.7680 hc         1 2WM       0.042700
    102 H58        -11.8950    -1.5360    -0.1490 ha         1 2WM       0.165000
    103 H59        -11.6710     0.1170    -2.7480 ha         1 2WM       0.164000
    104 H60        -13.8900     0.8900    -1.8260 hc         1 2WM       0.043700
    105 H61        -13.4130     0.4070    -0.2050 hc         1 2WM       0.043700
    106 H62        -11.5640     2.1070    -0.2380 hc         1 2WM       0.039700
    107 H63        -12.0540     2.6040    -1.8570 hc         1 2WM       0.039700
    108 H64        -14.3040     3.2880    -0.9660 hc         1 2WM       0.037200
    109 H65        -13.8110     2.7940     0.6540 hc         1 2WM       0.037200
    110 H66        -11.9720     4.5050     0.6170 hc         1 2WM       0.037200
    111 H67        -12.4640     5.0000    -1.0030 hc         1 2WM       0.037200
    112 H68        -14.7120     5.6830    -0.1110 hc         1 2WM       0.037200
    113 H69        -14.2190     5.1900     1.5090 hc         1 2WM       0.037200
    114 H70        -12.3800     6.9020     1.4710 hc         1 2WM       0.036700
    115 H71        -12.8730     7.3950    -0.1490 hc         1 2WM       0.036700
    116 H72        -15.1210     8.0790     0.7430 hc         1 2WM       0.036700
    117 H73        -14.6270     7.5860     2.3630 hc         1 2WM       0.036700
    118 H74        -12.7890     9.3030     2.3250 hc         1 2WM       0.036700
    119 H75        -13.2830     9.7950     0.7060 hc         1 2WM       0.036700
    120 H76        -14.1900    11.3600     2.4180 hc         1 2WM       0.031367
    121 H77        -15.5230    10.5180     1.5990 hc         1 2WM       0.031367
    122 H78        -15.0250    10.0210     3.2340 hc         1 2WM       0.031367
@<TRIPOS>BOND
     1     1     2 1   
     2     1    45 1   
     3     1    46 1   
     4     1    47 1   
     5     2     3 1   
     6     2    48 1   
     7     2    49 1   
     8     3     4 1   
     9     3    50 1   
    10     3    51 1   
    11     4     5 1   
    12     4    52 1   
    13     4    53 1   
    14     5     6 1   
    15     5    54 1   
    16     5    55 1   
    17     6     7 1   
    18     6    56 1   
    19     6    57 1   
    20     7     8 1   
    21     7    58 1   
    22     7    59 1   
    23     8     9 1   
    24     8    60 1   
    25     8    61 1   
    26     9    10 1   
    27     9    62 1   
    28     9    63 1   
    29    10    11 1   
    30    10    64 1   
    31    10    65 1   
    32    11    12 1   
    33    11    66 1   
    34    11    67 1   
    35    12    13 1   
    36    12    68 1   
    37    12    69 1   
    38    13    14 1   
    39    13    70 1   
    40    13    71 1   
    41    14    15 1   
    42    14    72 1   
    43    14    73 1   
    44    15    16 1   
    45    15    74 1   
    46    15    75 1   
    47    16    17 1   
    48    16    76 1   
    49    16    77 1   
    50    17    18 1   
    51    17    78 1   
    52    17    79 1   
    53    18    19 1   
    54    18    20 1   
    55    18    80 1   
    56    19    81 1   
    57    20    21 1   
    58    21    22 1   
    59    21    24 1   
    60    21    82 1   
    61    22    23 1   
    62    22    83 1   
    63    22    84 1   
    64    23    85 1   
    65    24    25 1   
    66    24    86 1   
    67    24    87 1   
    68    25    26 1   
    69    26    27 1   
    70    26    28 1   
    71    26    88 1   
    72    27    89 1   
    73    28    29 1   
    74    28    90 1   
    75    28    91 1   
    76    29    30 1   
    77    29    92 1   
    78    29    93 1   
    79    30    31 1   
    80    30    94 1   
    81    30    95 1   
    82    31    32 1   
    83    31    96 1   
    84    31    97 1   
    85    32    33 1   
    86    32    98 1   
    87    32    99 1   
    88    33    34 1   
    89    33   100 1   
    90    33   101 1   
    91    34    35 2   
    92    34   102 1   
    93    35    36 1   
    94    35   103 1   
    95    36    37 1   
    96    36   104 1   
    97    36   105 1   
    98    37    38 1   
    99    37   106 1   
   100    37   107 1   
   101    38    39 1   
   102    38   108 1   
   103    38   109 1   
   104    39    40 1   
   105    39   110 1   
   106    39   111 1   
   107    40    41 1   
   108    40   112 1   
   109    40   113 1   
   110    41    42 1   
   111    41   114 1   
   112    41   115 1   
   113    42    43 1   
   114    42   116 1   
   115    42   117 1   
   116    43    44 1   
   117    43   118 1   
   118    43   119 1   
   119    44   120 1   
   120    44   121 1   
   121    44   122 1   
@<TRIPOS>SUBSTRUCTURE
     1 2WM         1 TEMP              0 ****  ****    0 ROOT
