@<TRIPOS>MOLECULE
2WM
  122   121     1     0     0
SMALL
abcg2


@<TRIPOS>ATOM
      1 CBF         20.4460     6.4930    -0.5390 c3         1 2WM      -0.088100
      2 CBE         19.7180     5.1990    -0.2000 c3         1 2WM      -0.075400
      3 CBD         18.2240     5.2660    -0.4880 c3         1 2WM      -0.075400
      4 CBC         17.4870     3.9750    -0.1550 c3         1 2WM      -0.074400
      5 CBB         15.9910     4.0420    -0.4390 c3         1 2WM      -0.074400
      6 CBA         15.2590     2.7490    -0.1020 c3         1 2WM      -0.074400
      7 CAZ         13.7620     2.8110    -0.3800 c3         1 2WM      -0.073400
      8 CAY         13.0370     1.5170    -0.0330 c3         1 2WM      -0.074400
      9 CAX         11.5370     1.5670    -0.3020 c3         1 2WM      -0.073400
     10 CAW         10.8230     0.2730     0.0640 c3         1 2WM      -0.074400
     11 CAV          9.3220     0.3070    -0.1980 c3         1 2WM      -0.073400
     12 CAU          8.6230    -0.9890     0.1920 c3         1 2WM      -0.074400
     13 CAT          7.1190    -0.9720    -0.0550 c3         1 2WM      -0.073400
     14 CAS          6.4370    -2.2680     0.3650 c3         1 2WM      -0.075400
     15 CAR          4.9310    -2.2710     0.1320 c3         1 2WM      -0.074400
     16 CAQ          4.2720    -3.5670     0.5860 c3         1 2WM      -0.072400
     17 CAP          2.7650    -3.5760     0.3630 c3         1 2WM      -0.104400
     18 CAO          2.1150    -4.8940     0.7580 c3         1 2WM       0.384300
     19 OAD          2.3680    -5.2380     2.0910 oh         1 2WM      -0.684000
     20 OAN          0.7510    -4.7880     0.4810 os         1 2WM      -0.464000
     21 CAM          0.0210    -5.9940     0.3830 c3         1 2WM       0.186300
     22 CAL         -0.4430    -6.5280     1.7350 c3         1 2WM       0.143600
     23 OAK         -1.0850    -5.5270     2.4830 oh         1 2WM      -0.690000
     24 CBI         -1.0910    -5.7890    -0.6270 c3         1 2WM       0.172600
     25 OBJ         -2.0070    -4.8160    -0.1860 os         1 2WM      -0.454000
     26 CBK         -3.1190    -4.6550    -1.0170 c3         1 2WM       0.380300
     27 OCC         -2.7750    -4.1200    -2.2640 oh         1 2WM      -0.683000
     28 CBL         -4.1330    -3.8030    -0.2730 c3         1 2WM      -0.105400
     29 CBM         -5.4300    -3.6160    -1.0500 c3         1 2WM      -0.073400
     30 CBN         -6.4670    -2.7980    -0.2910 c3         1 2WM      -0.074400
     31 CBO         -7.7740    -2.6530    -1.0590 c3         1 2WM      -0.075400
     32 CBP         -8.8130    -1.8040    -0.3400 c3         1 2WM      -0.071400
     33 CBQ        -10.1480    -1.7590    -1.0810 c3         1 2WM      -0.041200
     34 CBR        -11.1760    -0.9190    -0.3910 c2         1 2WM      -0.218200
     35 CBS        -11.8640     0.0660    -0.9600 c2         1 2WM      -0.218200
     36 CBT        -12.9040     0.9060    -0.2860 c3         1 2WM      -0.040200
     37 CBU        -12.6500     2.4030    -0.4550 c3         1 2WM      -0.072400
     38 CBV        -13.7390     3.2690     0.1660 c3         1 2WM      -0.075400
     39 CBW        -13.5340     4.7570    -0.0920 c3         1 2WM      -0.074400
     40 CBX        -14.6180     5.6330     0.5240 c3         1 2WM      -0.074400
     41 CBY        -14.4380     7.1140     0.2140 c3         1 2WM      -0.075400
     42 CBZ        -15.5110     7.9980     0.8370 c3         1 2WM      -0.075400
     43 CCA        -15.3430     9.4760     0.5060 c3         1 2WM      -0.074400
     44 CCB        -16.4130    10.3510     1.1440 c3         1 2WM      -0.088100
     45 H1          20.3470     6.7340    -1.5990 hc         1 2WM       0.031367
     46 H2          20.0390     7.3330     0.0270 hc         1 2WM       0.031367
     47 H3          21.5110     6.4270    -0.3130 hc         1 2WM       0.031367
     48 H4          20.1580     4.3710    -0.7640 hc         1 2WM       0.036700
     49 H5          19.8710     4.9580     0.8570 hc         1 2WM       0.036700
     50 H6          17.7820     6.0940     0.0790 hc         1 2WM       0.036700
     51 H7          18.0710     5.5110    -1.5450 hc         1 2WM       0.036700
     52 H8          17.9280     3.1490    -0.7240 hc         1 2WM       0.036700
     53 H9          17.6430     3.7300     0.9010 hc         1 2WM       0.036700
     54 H10         15.5500     4.8680     0.1300 hc         1 2WM       0.036700
     55 H11         15.8340     4.2870    -1.4950 hc         1 2WM       0.036700
     56 H12         15.7000     1.9240    -0.6720 hc         1 2WM       0.036700
     57 H13         15.4200     2.5050     0.9530 hc         1 2WM       0.036700
     58 H14         13.3200     3.6380     0.1880 hc         1 2WM       0.037700
     59 H15         13.5980     3.0490    -1.4370 hc         1 2WM       0.037700
     60 H16         13.4790     0.6900    -0.6000 hc         1 2WM       0.036700
     61 H17         13.2040     1.2790     1.0240 hc         1 2WM       0.036700
     62 H18         11.0950     2.3980     0.2600 hc         1 2WM       0.037700
     63 H19         11.3660     1.7940    -1.3600 hc         1 2WM       0.037700
     64 H20         11.2690    -0.5580    -0.4950 hc         1 2WM       0.036700
     65 H21         10.9980     0.0500     1.1220 hc         1 2WM       0.036700
     66 H22          8.8760     1.1420     0.3540 hc         1 2WM       0.037700
     67 H23          9.1430     0.5160    -1.2580 hc         1 2WM       0.037700
     68 H24          9.0710    -1.8230    -0.3600 hc         1 2WM       0.036700
     69 H25          8.8100    -1.1950     1.2520 hc         1 2WM       0.036700
     70 H26          6.6700    -0.1330     0.4870 hc         1 2WM       0.037700
     71 H27          6.9270    -0.7830    -1.1170 hc         1 2WM       0.037700
     72 H28          6.8890    -3.1070    -0.1760 hc         1 2WM       0.037700
     73 H29          6.6360    -2.4520     1.4270 hc         1 2WM       0.037700
     74 H30          4.4780    -1.4270     0.6630 hc         1 2WM       0.038700
     75 H31          4.7260    -2.1060    -0.9310 hc         1 2WM       0.038700
     76 H32          4.7250    -4.4090     0.0500 hc         1 2WM       0.043700
     77 H33          4.4900    -3.7290     1.6450 hc         1 2WM       0.043700
     78 H34          2.2990    -2.7580     0.9250 hc         1 2WM       0.057200
     79 H35          2.5520    -3.3890    -0.6930 hc         1 2WM       0.057200
     80 H36          2.5550    -5.7150     0.1740 h2         1 2WM       0.053700
     81 H37          2.0580    -4.5220     2.6590 ho         1 2WM       0.453000
     82 H38          0.6510    -6.7850    -0.0530 h1         1 2WM       0.034700
     83 H39         -1.1040    -7.3850     1.5380 h1         1 2WM       0.022700
     84 H40          0.4270    -6.9240     2.2680 h1         1 2WM       0.022700
     85 H41         -1.1250    -5.8290     3.3940 ho         1 2WM       0.493000
     86 H42         -0.6430    -5.5100    -1.5890 h1         1 2WM       0.031200
     87 H43         -1.5950    -6.7550    -0.7790 h1         1 2WM       0.031200
     88 H44         -3.5570    -5.6380    -1.2480 h2         1 2WM       0.054700
     89 H45         -2.5500    -3.1890    -2.1490 ho         1 2WM       0.450000
     90 H46         -4.3480    -4.2790     0.6880 hc         1 2WM       0.059200
     91 H47         -3.6870    -2.8270    -0.0450 hc         1 2WM       0.059200
     92 H48         -5.2240    -3.1300    -2.0070 hc         1 2WM       0.042700
     93 H49         -5.8530    -4.5980    -1.2920 hc         1 2WM       0.042700
     94 H50         -6.6670    -3.2670     0.6790 hc         1 2WM       0.039200
     95 H51         -6.0570    -1.8060    -0.0690 hc         1 2WM       0.039200
     96 H52         -7.5710    -2.2170    -2.0430 hc         1 2WM       0.037700
     97 H53         -8.1900    -3.6490    -1.2520 hc         1 2WM       0.037700
     98 H54         -8.9760    -2.2000     0.6690 hc         1 2WM       0.040200
     99 H55         -8.4310    -0.7860    -0.2090 hc         1 2WM       0.040200
    100 H56         -9.9960    -1.3940    -2.1020 hc         1 2WM       0.042700
    101 H57        -10.5230    -2.7860    -1.1760 hc         1 2WM       0.042700
    102 H58        -11.3610    -1.1530     0.6570 ha         1 2WM       0.165000
    103 H59        -11.6740     0.2980    -2.0070 ha         1 2WM       0.164000
    104 H60        -13.8870     0.6730    -0.7120 hc         1 2WM       0.043700
    105 H61        -12.9610     0.6500     0.7760 hc         1 2WM       0.043700
    106 H62        -11.6800     2.6610    -0.0170 hc         1 2WM       0.039700
    107 H63        -12.5720     2.6340    -1.5230 hc         1 2WM       0.039700
    108 H64        -14.7130     2.9640    -0.2330 hc         1 2WM       0.037200
    109 H65        -13.7830     3.0850     1.2450 hc         1 2WM       0.037200
    110 H66        -12.5570     5.0640     0.2970 hc         1 2WM       0.037200
    111 H67        -13.4980     4.9310    -1.1730 hc         1 2WM       0.037200
    112 H68        -15.5990     5.3050     0.1620 hc         1 2WM       0.037200
    113 H69        -14.6320     5.4870     1.6100 hc         1 2WM       0.037200
    114 H70        -13.4520     7.4410     0.5650 hc         1 2WM       0.036700
    115 H71        -14.4350     7.2580    -0.8730 hc         1 2WM       0.036700
    116 H72        -16.4980     7.6620     0.5000 hc         1 2WM       0.036700
    117 H73        -15.5030     7.8670     1.9250 hc         1 2WM       0.036700
    118 H74        -14.3540     9.8100     0.8340 hc         1 2WM       0.036700
    119 H75        -15.3610     9.6070    -0.5810 hc         1 2WM       0.036700
    120 H76        -16.2720    11.4040     0.8980 hc         1 2WM       0.031367
    121 H77        -17.4100    10.0640     0.8060 hc         1 2WM       0.031367
    122 H78        -16.3970    10.2610     2.2320 hc         1 2WM       0.031367
@<TRIPOS>BOND
     1     1     2 1   
     2     1    45 1   
     3     1    46 1   
     4     1    47 1   
     5     2     3 1   
     6     2    48 1   
     7     2    49 1   
     8     3     4 1   
     9     3    50 1   
    10     3    51 1   
    11     4     5 1   
    12     4    52 1   
    13     4    53 1   
    14     5     6 1   
    15     5    54 1   
    16     5    55 1   
    17     6     7 1   
    18     6    56 1   
    19     6    57 1   
    20     7     8 1   
    21     7    58 1   
    22     7    59 1   
    23     8     9 1   
    24     8    60 1   
    25     8    61 1   
    26     9    10 1   
    27     9    62 1   
    28     9    63 1   
    29    10    11 1   
    30    10    64 1   
    31    10    65 1   
    32    11    12 1   
    33    11    66 1   
    34    11    67 1   
    35    12    13 1   
    36    12    68 1   
    37    12    69 1   
    38    13    14 1   
    39    13    70 1   
    40    13    71 1   
    41    14    15 1   
    42    14    72 1   
    43    14    73 1   
    44    15    16 1   
    45    15    74 1   
    46    15    75 1   
    47    16    17 1   
    48    16    76 1   
    49    16    77 1   
    50    17    18 1   
    51    17    78 1   
    52    17    79 1   
    53    18    19 1   
    54    18    20 1   
    55    18    80 1   
    56    19    81 1   
    57    20    21 1   
    58    21    22 1   
    59    21    24 1   
    60    21    82 1   
    61    22    23 1   
    62    22    83 1   
    63    22    84 1   
    64    23    85 1   
    65    24    25 1   
    66    24    86 1   
    67    24    87 1   
    68    25    26 1   
    69    26    27 1   
    70    26    28 1   
    71    26    88 1   
    72    27    89 1   
    73    28    29 1   
    74    28    90 1   
    75    28    91 1   
    76    29    30 1   
    77    29    92 1   
    78    29    93 1   
    79    30    31 1   
    80    30    94 1   
    81    30    95 1   
    82    31    32 1   
    83    31    96 1   
    84    31    97 1   
    85    32    33 1   
    86    32    98 1   
    87    32    99 1   
    88    33    34 1   
    89    33   100 1   
    90    33   101 1   
    91    34    35 2   
    92    34   102 1   
    93    35    36 1   
    94    35   103 1   
    95    36    37 1   
    96    36   104 1   
    97    36   105 1   
    98    37    38 1   
    99    37   106 1   
   100    37   107 1   
   101    38    39 1   
   102    38   108 1   
   103    38   109 1   
   104    39    40 1   
   105    39   110 1   
   106    39   111 1   
   107    40    41 1   
   108    40   112 1   
   109    40   113 1   
   110    41    42 1   
   111    41   114 1   
   112    41   115 1   
   113    42    43 1   
   114    42   116 1   
   115    42   117 1   
   116    43    44 1   
   117    43   118 1   
   118    43   119 1   
   119    44   120 1   
   120    44   121 1   
   121    44   122 1   
@<TRIPOS>SUBSTRUCTURE
     1 2WM         1 TEMP              0 ****  ****    0 ROOT
