@<TRIPOS>MOLECULE
2WN
   32    34     1     0     0
SMALL
No Charge or Current Charge


@<TRIPOS>ATOM
      1 O1          -6.9010     1.1760    -0.1040 oh         1 2WN      -0.498100
      2 C2          -5.6490     0.6160    -0.0420 ca         1 2WN       0.191100
      3 C3          -5.4900    -0.7830    -0.1240 ca         1 2WN       0.034500
      4 C4          -4.2060    -1.3540    -0.0600 ca         1 2WN      -0.016000
      5 C5          -3.0610    -0.5390     0.0870 ca         1 2WN      -0.174500
      6 C6          -3.2280     0.8620     0.1680 ca         1 2WN      -0.016000
      7 C7          -4.5100     1.4350     0.1050 ca         1 2WN       0.034500
      8 Cl8         -4.6710     3.1890     0.2110 cl         1 2WN      -0.170000
      9 Cl9         -6.8870    -1.8460    -0.3070 cl         1 2WN      -0.170000
     10 C10         -1.7250    -1.1420     0.1530 cc         1 2WN       0.492500
     11 O11         -0.6390    -0.3420     0.2940 os         1 2WN      -0.276000
     12 C12          0.3700    -1.2490     0.3130 cc         1 2WN       0.472500
     13 N13         -0.0530    -2.4990     0.1950 nd         1 2WN      -0.345000
     14 N14         -1.4200    -2.4280     0.0900 nd         1 2WN      -0.353000
     15 C15          1.7560    -0.7850     0.4560 ca         1 2WN      -0.128500
     16 C16          2.8220    -1.7140     0.4760 ca         1 2WN      -0.054500
     17 C17          4.1510    -1.2730     0.6140 ca         1 2WN      -0.109500
     18 C18          4.4290     0.0990     0.7240 ca         1 2WN       0.126100
     19 C19          3.3790     1.0290     0.7220 ca         1 2WN      -0.109500
     20 C20          2.0490     0.5920     0.5840 ca         1 2WN      -0.054500
     21 O21          5.7200     0.5300     0.8800 os         1 2WN      -0.480800
     22 S22          6.6440     0.7500    -0.4720 s6         1 2WN       1.586600
     23 O23          5.8290     1.4360    -1.4880 o          1 2WN      -0.538000
     24 O25          7.9380     1.3180    -0.0580 o          1 2WN      -0.538000
     25 F26          6.9600    -0.7470    -1.0700 f          1 2WN      -0.275900
     26 H1          -6.8020     2.1500    -0.0300 ho         1 2WN       0.489000
     27 H2          -4.1080    -2.4350    -0.1250 ha         1 2WN       0.152000
     28 H3          -2.3670     1.5180     0.2820 ha         1 2WN       0.152000
     29 H4           2.6260    -2.7810     0.3890 ha         1 2WN       0.144000
     30 H5           4.9610    -1.9990     0.6400 ha         1 2WN       0.144500
     31 H6           3.5930     2.0900     0.8270 ha         1 2WN       0.144500
     32 H7           1.2500     1.3320     0.5800 ha         1 2WN       0.144000
@<TRIPOS>BOND
     1     1     2 1   
     2     1    26 1   
     3     2     3 ar  
     4     2     7 ar  
     5     3     4 ar  
     6     3     9 1   
     7     4     5 ar  
     8     4    27 1   
     9     5     6 ar  
    10     5    10 1   
    11     6     7 ar  
    12     6    28 1   
    13     7     8 1   
    14    10    11 1   
    15    10    14 2   
    16    11    12 1   
    17    12    13 2   
    18    12    15 1   
    19    13    14 1   
    20    15    16 ar  
    21    15    20 ar  
    22    16    17 ar  
    23    16    29 1   
    24    17    18 ar  
    25    17    30 1   
    26    18    19 ar  
    27    18    21 1   
    28    19    20 ar  
    29    19    31 1   
    30    20    32 1   
    31    21    22 1   
    32    22    23 2   
    33    22    24 2   
    34    22    25 1   
@<TRIPOS>SUBSTRUCTURE
     1 2WN         1 TEMP              0 ****  ****    0 ROOT
