@<TRIPOS>MOLECULE
2WN
   32    34     1     0     0
SMALL
bcc


@<TRIPOS>ATOM
      1 O1          -6.8370     1.0870    -0.0660 oh         1 2WN      -0.459100
      2 C2          -5.5980     0.6180    -0.0150 ca         1 2WN       0.191100
      3 C3          -5.4040    -0.7650    -0.0880 ca         1 2WN      -0.057100
      4 C4          -4.1460    -1.3230    -0.0380 ca         1 2WN      -0.034000
      5 C5          -3.0270    -0.5010     0.0860 ca         1 2WN      -0.174500
      6 C6          -3.1890     0.8790     0.1580 ca         1 2WN      -0.034000
      7 C7          -4.4590     1.4170     0.1060 ca         1 2WN      -0.057100
      8 CL8         -4.6720     3.1310     0.1950 cl         1 2WN      -0.078400
      9 CL9         -6.7910    -1.7750    -0.2410 cl         1 2WN      -0.078400
     10 C10         -1.7140    -1.1090     0.1410 cc         1 2WN       0.536900
     11 O11         -0.6210    -0.3440     0.2760 os         1 2WN      -0.364800
     12 C12          0.3860    -1.2310     0.2930 cc         1 2WN       0.516900
     13 N13         -0.0510    -2.4380     0.1790 nd         1 2WN      -0.345000
     14 N14         -1.4070    -2.3610     0.0810 nd         1 2WN      -0.353000
     15 C15          1.7580    -0.7760     0.4250 ca         1 2WN      -0.128500
     16 C16          2.7800    -1.7240     0.4810 ca         1 2WN      -0.072500
     17 C17          4.0970    -1.3230     0.6020 ca         1 2WN      -0.127500
     18 C18          4.3720     0.0320     0.6700 ca         1 2WN       0.126100
     19 C19          3.3810     0.9930     0.6220 ca         1 2WN      -0.127500
     20 C20          2.0640     0.5820     0.5010 ca         1 2WN      -0.072500
     21 O21          5.6990     0.4340     0.8520 os         1 2WN      -0.480800
     22 S22          6.5760     0.8160    -0.4120 s6         1 2WN       1.728200
     23 O23          5.8090     1.5150    -1.3930 o          1 2WN      -0.608800
     24 O25          7.8270     1.2730     0.0920 o          1 2WN      -0.608800
     25 F26          6.8100    -0.6400    -0.9900 f          1 2WN      -0.275900
     26 H1          -6.8560     2.0520    -0.0100 ho         1 2WN       0.450000
     27 H2          -4.0340    -2.3970    -0.0960 ha         1 2WN       0.170000
     28 H3          -2.3400     1.5420     0.2530 ha         1 2WN       0.170000
     29 H4           2.5490    -2.7790     0.4300 ha         1 2WN       0.162000
     30 H5           4.8890    -2.0560     0.6580 ha         1 2WN       0.162500
     31 H6           3.6210     2.0450     0.6910 ha         1 2WN       0.162500
     32 H7           1.2870     1.3330     0.4650 ha         1 2WN       0.162000
@<TRIPOS>BOND
     1     1     2 1   
     2     1    26 1   
     3     2     3 ar  
     4     2     7 ar  
     5     3     4 ar  
     6     3     9 1   
     7     4     5 ar  
     8     4    27 1   
     9     5     6 ar  
    10     5    10 1   
    11     6     7 ar  
    12     6    28 1   
    13     7     8 1   
    14    10    11 1   
    15    10    14 2   
    16    11    12 1   
    17    12    13 2   
    18    12    15 1   
    19    13    14 1   
    20    15    16 ar  
    21    15    20 ar  
    22    16    17 ar  
    23    16    29 1   
    24    17    18 ar  
    25    17    30 1   
    26    18    19 ar  
    27    18    21 1   
    28    19    20 ar  
    29    19    31 1   
    30    20    32 1   
    31    21    22 1   
    32    22    23 2   
    33    22    24 2   
    34    22    25 1   
@<TRIPOS>SUBSTRUCTURE
     1 2WN         1 TEMP              0 ****  ****    0 ROOT
