@<TRIPOS>MOLECULE
2WP
   33    33     1     0     0
SMALL
abcg2


@<TRIPOS>ATOM
      1 C1          -3.9530     1.2700    -0.4520 c5         1 2WP       0.352300
      2 O1          -4.5420     2.2200     0.3620 oh         1 2WP      -0.725000
      3 C2          -4.6430    -0.0850    -0.2660 c5         1 2WP       0.107300
      4 O2          -5.0890    -0.2790     1.0480 oh         1 2WP      -0.691000
      5 C3          -3.4810    -1.0390    -0.5260 c5         1 2WP       0.140300
      6 O3          -3.6060    -2.3260    -0.0030 oh         1 2WP      -0.680000
      7 C4          -2.3280    -0.2990     0.1510 c5         1 2WP       0.193300
      8 O4          -2.5910     1.0690    -0.1050 os         1 2WP      -0.460000
      9 CE          -0.9690    -0.6800    -0.3940 c3         1 2WP       0.049600
     10 N            4.5790    -1.8300    -0.1420 n8         1 2WP      -0.989200
     11 CA           4.3440    -0.4240    -0.4170 c3         1 2WP       0.022500
     12 CB           3.0620     0.1550     0.2100 c3         1 2WP      -0.095400
     13 CG           1.7960    -0.4950    -0.3280 c3         1 2WP       0.071600
     14 SD           0.3360     0.2840     0.4180 ss         1 2WP      -0.431000
     15 C            5.5380     0.4380     0.0550 c          1 2WP       0.726000
     16 O            6.2830    -0.0450     0.9300 o          1 2WP      -0.728000
     17 OXT          5.6280     1.5710    -0.4580 o          1 2WP      -0.728000
     18 H1          -3.9930     1.5800    -1.5040 h2         1 2WP       0.036700
     19 H2          -4.3960     3.0980    -0.0050 ho         1 2WP       0.524000
     20 H3          -5.4570    -0.2060    -0.9930 h1         1 2WP       0.037700
     21 H4          -5.6620     0.4590     1.2840 ho         1 2WP       0.517000
     22 H5          -3.2990    -1.0580    -1.6110 h1         1 2WP       0.036700
     23 H6          -4.2520    -2.8110    -0.5250 ho         1 2WP       0.502000
     24 H7          -2.3530    -0.5000     1.2310 h1         1 2WP       0.090700
     25 H8          -0.7990    -1.7430    -0.2070 h1         1 2WP       0.060200
     26 H9          -0.9310    -0.5140    -1.4740 h1         1 2WP       0.060200
     27 H13          4.2550    -0.3010    -1.5030 h1         1 2WP       0.042700
     28 H14          3.1060     0.0360     1.2980 hc         1 2WP       0.059200
     29 H15          3.0250     1.2280     0.0080 hc         1 2WP       0.059200
     30 H16          1.7450    -0.3790    -1.4130 h1         1 2WP       0.043200
     31 H17          1.7680    -1.5640    -0.1050 h1         1 2WP       0.043200
     32 H10          4.8150    -1.9370     0.8360 hn         1 2WP       0.375000
     33 H11          3.7410    -2.3730    -0.3050 hn         1 2WP       0.375000
@<TRIPOS>BOND
     1     1     2 1   
     2     1     3 1   
     3     1     8 1   
     4     1    18 1   
     5     2    19 1   
     6     3     4 1   
     7     3     5 1   
     8     3    20 1   
     9     4    21 1   
    10     5     6 1   
    11     5     7 1   
    12     5    22 1   
    13     6    23 1   
    14     7     8 1   
    15     7     9 1   
    16     7    24 1   
    17     9    14 1   
    18     9    25 1   
    19     9    26 1   
    20    10    11 1   
    21    10    32 1   
    22    10    33 1   
    23    11    12 1   
    24    11    15 1   
    25    11    27 1   
    26    12    13 1   
    27    12    28 1   
    28    12    29 1   
    29    13    14 1   
    30    13    30 1   
    31    13    31 1   
    32    15    16 1   
    33    15    17 1   
@<TRIPOS>SUBSTRUCTURE
     1 2WP         1 TEMP              0 ****  ****    0 ROOT
