@<TRIPOS>MOLECULE
2WP
   33    33     1     0     0
SMALL
No Charge or Current Charge


@<TRIPOS>ATOM
      1 C1          -4.1300     1.2510    -0.5120 c5         1 2WP       0.352300
      2 O1          -4.4720     2.0080     0.6410 oh         1 2WP      -0.725000
      3 C2          -4.7750    -0.1900    -0.4340 c5         1 2WP       0.107300
      4 O2          -5.2140    -0.4730     0.9080 oh         1 2WP      -0.691000
      5 C3          -3.5570    -1.0840    -0.8090 c5         1 2WP       0.140300
      6 O3          -3.7390    -2.4160    -0.3170 oh         1 2WP      -0.680000
      7 C4          -2.4280    -0.2830    -0.0950 c5         1 2WP       0.193300
      8 O4          -2.7070     1.0670    -0.5250 os         1 2WP      -0.460000
      9 CE          -0.9900    -0.6950    -0.4890 c3         1 2WP       0.049600
     10 N            4.6190    -1.8470    -0.0510 n8         1 2WP      -0.989200
     11 CA           4.4300    -0.3780    -0.3430 c3         1 2WP       0.022500
     12 CB           3.1040     0.1310     0.2810 c3         1 2WP      -0.095400
     13 CG           1.8330    -0.5070    -0.3190 c3         1 2WP       0.071600
     14 SD           0.3210     0.2450     0.4310 ss         1 2WP      -0.431000
     15 C            5.6360     0.5780     0.0460 c          1 2WP       0.726000
     16 O            5.9950     0.6220     1.2170 o          1 2WP      -0.728000
     17 OXT          6.2040     1.1910    -0.8500 o          1 2WP      -0.728000
     18 H1          -4.4400     1.7760    -1.4250 h2         1 2WP       0.036700
     19 H2          -3.8650     2.7830     0.6160 ho         1 2WP       0.524000
     20 H3          -5.6010    -0.3030    -1.1490 h1         1 2WP       0.037700
     21 H4          -5.1650     0.4240     1.3350 ho         1 2WP       0.517000
     22 H5          -3.3940    -1.0940    -1.8960 h1         1 2WP       0.036700
     23 H6          -4.3990    -2.3010     0.4120 ho         1 2WP       0.502000
     24 H7          -2.5270    -0.3420     0.9980 h1         1 2WP       0.090700
     25 H8          -0.8600    -1.7650    -0.2830 h1         1 2WP       0.060200
     26 H9          -0.8530    -0.5380    -1.5670 h1         1 2WP       0.060200
     27 H13          4.3200    -0.2900    -1.4330 h1         1 2WP       0.042700
     28 H14          3.1180    -0.0290     1.3660 hc         1 2WP       0.059200
     29 H15          3.0450     1.2160     0.1270 hc         1 2WP       0.059200
     30 H16          1.8110    -0.3420    -1.4050 h1         1 2WP       0.043200
     31 H17          1.8230    -1.5880    -0.1290 h1         1 2WP       0.043200
     32 H10          4.7980    -1.9630     0.9550 hn         1 2WP       0.375000
     33 H11          3.7360    -2.3450    -0.2070 hn         1 2WP       0.375000
@<TRIPOS>BOND
     1     1     2 1   
     2     1     3 1   
     3     1     8 1   
     4     1    18 1   
     5     2    19 1   
     6     3     4 1   
     7     3     5 1   
     8     3    20 1   
     9     4    21 1   
    10     5     6 1   
    11     5     7 1   
    12     5    22 1   
    13     6    23 1   
    14     7     8 1   
    15     7     9 1   
    16     7    24 1   
    17     9    14 1   
    18     9    25 1   
    19     9    26 1   
    20    10    11 1   
    21    10    32 1   
    22    10    33 1   
    23    11    12 1   
    24    11    15 1   
    25    11    27 1   
    26    12    13 1   
    27    12    28 1   
    28    12    29 1   
    29    13    14 1   
    30    13    30 1   
    31    13    31 1   
    32    15    16 1   
    33    15    17 1   
@<TRIPOS>SUBSTRUCTURE
     1 2WP         1 TEMP              0 ****  ****    0 ROOT
