@<TRIPOS>MOLECULE
2WQ
   27    27     1     0     0
SMALL
No Charge or Current Charge


@<TRIPOS>ATOM
      1 O1          -1.4680    -0.6000     0.0410 os         1 2WQ      -0.268100
      2 C2          -2.9020    -0.7280    -0.1260 c3         1 2WQ      -0.002400
      3 C3          -3.3890    -2.2060    -0.1480 c          1 2WQ       0.730000
      4 O4          -4.5940    -2.3990    -0.2550 o          1 2WQ      -0.705000
      5 O6          -2.5740    -3.1160    -0.0630 o          1 2WQ      -0.705000
      6 C9          -0.8250     0.6250     0.0740 ca         1 2WQ       0.242100
      7 C10          0.5840     0.6750     0.2310 ca         1 2WQ      -0.231600
      8 C11          1.3980    -0.5870     0.4220 c          1 2WQ       0.642700
      9 O12          0.9470    -1.6230     0.8860 o          1 2WQ      -0.562100
     10 N13          2.7310    -0.4900     0.0950 ns         1 2WQ      -0.514900
     11 C15          3.6950    -1.5750     0.2370 c3         1 2WQ       0.178100
     12 C17          5.0170    -1.1130    -0.2040 c1         1 2WQ      -0.145100
     13 C18          6.0950    -0.7040    -0.5740 c1         1 2WQ      -0.266000
     14 C21          1.2310     1.9360     0.2190 ca         1 2WQ      -0.031000
     15 C23          0.4910     3.1160     0.0570 ca         1 2WQ      -0.241000
     16 C25         -0.8950     3.0560    -0.0930 ca         1 2WQ       0.221000
     17 F26         -1.6030     4.1950    -0.2480 f          1 2WQ      -0.193000
     18 C27         -1.5540     1.8250    -0.0870 ca         1 2WQ      -0.274000
     19 H1          -3.4250    -0.2200     0.6940 h1         1 2WQ       0.022700
     20 H2          -3.2140    -0.2670    -1.0720 h1         1 2WQ       0.022700
     21 H4           3.0480     0.3860    -0.2970 hn         1 2WQ       0.313500
     22 H5           3.7450    -1.8890     1.2880 h1         1 2WQ       0.076700
     23 H6           3.3800    -2.4310    -0.3740 h1         1 2WQ       0.076700
     24 H7           7.0540    -0.3550    -0.9030 ha         1 2WQ       0.246000
     25 H8           2.3070     2.0210     0.3570 ha         1 2WQ       0.107000
     26 H9           0.9940     4.0800     0.0550 ha         1 2WQ       0.119000
     27 H10         -2.6310     1.8230    -0.2140 ha         1 2WQ       0.144000
@<TRIPOS>BOND
     1     1     2 1   
     2     1     6 1   
     3     2     3 1   
     4     2    19 1   
     5     2    20 1   
     6     3     4 1   
     7     3     5 1   
     8     6     7 ar  
     9     6    18 ar  
    10     7     8 1   
    11     7    14 ar  
    12     8     9 2   
    13     8    10 1   
    14    10    11 1   
    15    10    21 1   
    16    11    12 1   
    17    11    22 1   
    18    11    23 1   
    19    12    13 3   
    20    13    24 1   
    21    14    15 ar  
    22    14    25 1   
    23    15    16 ar  
    24    15    26 1   
    25    16    17 1   
    26    16    18 ar  
    27    18    27 1   
@<TRIPOS>SUBSTRUCTURE
     1 2WQ         1 TEMP              0 ****  ****    0 ROOT
