@<TRIPOS>MOLECULE
2WQ
   27    27     1     0     0
SMALL
abcg2


@<TRIPOS>ATOM
      1 O1          -1.2920    -0.5580     0.1090 os         1 2WQ      -0.268100
      2 C2          -2.6880    -0.7210    -0.0840 c3         1 2WQ      -0.002400
      3 C3          -3.0620    -2.2120    -0.1120 c          1 2WQ       0.730000
      4 O4          -4.2920    -2.4090    -0.1640 o          1 2WQ      -0.705000
      5 O6          -2.1510    -3.0500    -0.0950 o          1 2WQ      -0.705000
      6 C9          -0.7770     0.6700     0.1170 ca         1 2WQ       0.242100
      7 C10          0.6150     0.7690     0.2880 ca         1 2WQ      -0.231600
      8 C11          1.4340    -0.4500     0.5670 c          1 2WQ       0.642700
      9 O12          1.2120    -1.1820     1.5160 o          1 2WQ      -0.562100
     10 N13          2.4510    -0.6310    -0.2980 ns         1 2WQ      -0.514900
     11 C15          3.4250    -1.6900    -0.1780 c3         1 2WQ       0.178100
     12 C17          4.7880    -1.1660    -0.1160 c1         1 2WQ      -0.145100
     13 C18          5.9080    -0.7360    -0.0660 c1         1 2WQ      -0.266000
     14 C21          1.2220     2.0160     0.2580 ca         1 2WQ      -0.031000
     15 C23          0.4880     3.1820     0.0860 ca         1 2WQ      -0.241000
     16 C25         -0.8750     3.0520    -0.0700 ca         1 2WQ       0.221000
     17 F26         -1.6170     4.1550    -0.2410 f          1 2WQ      -0.193000
     18 C27         -1.5260     1.8320    -0.0640 ca         1 2WQ      -0.274000
     19 H1          -3.2460    -0.2230     0.7170 h1         1 2WQ       0.022700
     20 H2          -2.9980    -0.2610    -1.0300 h1         1 2WQ       0.022700
     21 H4           2.5220    -0.0220    -1.0980 hn         1 2WQ       0.313500
     22 H5           3.2100    -2.2590     0.7260 h1         1 2WQ       0.076700
     23 H6           3.3370    -2.3840    -1.0170 h1         1 2WQ       0.076700
     24 H7           6.8960    -0.3380    -0.0150 ha         1 2WQ       0.246000
     25 H8           2.2940     2.0900     0.3890 ha         1 2WQ       0.107000
     26 H9           0.9640     4.1530     0.0770 ha         1 2WQ       0.119000
     27 H10         -2.5980     1.8080    -0.2060 ha         1 2WQ       0.144000
@<TRIPOS>BOND
     1     1     2 1   
     2     1     6 1   
     3     2     3 1   
     4     2    19 1   
     5     2    20 1   
     6     3     4 1   
     7     3     5 1   
     8     6     7 ar  
     9     6    18 ar  
    10     7     8 1   
    11     7    14 ar  
    12     8     9 2   
    13     8    10 1   
    14    10    11 1   
    15    10    21 1   
    16    11    12 1   
    17    11    22 1   
    18    11    23 1   
    19    12    13 3   
    20    13    24 1   
    21    14    15 ar  
    22    14    25 1   
    23    15    16 ar  
    24    15    26 1   
    25    16    17 1   
    26    16    18 ar  
    27    18    27 1   
@<TRIPOS>SUBSTRUCTURE
     1 2WQ         1 TEMP              0 ****  ****    0 ROOT
