@<TRIPOS>MOLECULE
2WR
   22    22     1     0     0
SMALL
No Charge or Current Charge


@<TRIPOS>ATOM
      1 C1          15.6940    -9.1730    40.5480 ca         1 2WR       0.232100
      2 C2          15.8630    -9.6630    39.2210 ca         1 2WR      -0.180600
      3 C3          16.6780    -8.9520    38.1570 c          1 2WR       0.617700
      4 N4          17.2780    -7.7840    38.4410 nt         1 2WR      -0.588000
      5 O7          16.8180    -9.4030    37.0310 o          1 2WR      -0.685100
      6 C8          15.2350   -10.8810    38.8620 ca         1 2WR      -0.026000
      7 C10         14.4640   -11.5960    39.7890 ca         1 2WR      -0.212000
      8 C12         14.3100   -11.1090    41.0880 ca         1 2WR       0.195000
      9 F13         13.5700   -11.8020    41.9800 f          1 2WR      -0.201000
     10 C14         14.9180    -9.9110    41.4710 ca         1 2WR      -0.226000
     11 O16         16.3080    -7.9920    40.9330 os         1 2WR      -0.358100
     12 C17         16.0670    -7.3360    42.2080 c3         1 2WR       0.014600
     13 C18         14.6400    -6.7220    42.3560 c          1 2WR       0.701000
     14 O19         14.3100    -6.3250    43.4660 o          1 2WR      -0.717000
     15 O21         13.9040    -6.6530    41.3800 o          1 2WR      -0.717000
     16 H1          17.8190    -7.3150    37.7310 hn         1 2WR       0.343000
     17 H2          17.1760    -7.3920    39.3660 hn         1 2WR       0.343000
     18 H3          15.3430   -11.2810    37.8550 ha         1 2WR       0.123000
     19 H4          13.9880   -12.5300    39.4990 ha         1 2WR       0.118000
     20 H5          14.7760    -9.5750    42.4910 ha         1 2WR       0.137000
     21 H6          16.2440    -8.0250    43.0430 h1         1 2WR       0.042700
     22 H7          16.7740    -6.5060    42.3260 h1         1 2WR       0.042700
@<TRIPOS>BOND
     1     1     2 ar  
     2     1    10 ar  
     3     1    11 1   
     4     2     3 1   
     5     2     6 ar  
     6     3     4 1   
     7     3     5 2   
     8     4    16 1   
     9     4    17 1   
    10     6     7 ar  
    11     6    18 1   
    12     7     8 ar  
    13     7    19 1   
    14     8     9 1   
    15     8    10 ar  
    16    10    20 1   
    17    11    12 1   
    18    12    13 1   
    19    12    21 1   
    20    12    22 1   
    21    13    14 1   
    22    13    15 1   
@<TRIPOS>SUBSTRUCTURE
     1 2WR         1 TEMP              0 ****  ****    0 ROOT
