@<TRIPOS>MOLECULE
2WR
   22    22     1     0     0
SMALL
abcg2


@<TRIPOS>ATOM
      1 C1          15.8670    -9.3810    40.7570 ca         1 2WR       0.232100
      2 C2          15.8810    -9.6770    39.3840 ca         1 2WR      -0.180600
      3 C3          16.5900    -8.8360    38.3600 c          1 2WR       0.617700
      4 N4          16.4690    -7.5100    38.5000 nt         1 2WR      -0.588000
      5 O7          17.1910    -9.3670    37.4180 o          1 2WR      -0.685100
      6 C8          15.1810   -10.7910    38.9250 ca         1 2WR      -0.026000
      7 C10         14.4310   -11.5880    39.7790 ca         1 2WR      -0.212000
      8 C12         14.4190   -11.2440    41.1180 ca         1 2WR       0.195000
      9 F13         13.6970   -12.0060    41.9780 f          1 2WR      -0.201000
     10 C14         15.1200   -10.1710    41.6330 ca         1 2WR      -0.226000
     11 O16         16.6690    -8.3780    41.2000 os         1 2WR      -0.358100
     12 C17         16.2020    -7.5300    42.2540 c3         1 2WR       0.014600
     13 C18         15.0880    -6.5570    41.8200 c          1 2WR       0.701000
     14 O19         14.5550    -5.9240    42.7570 o          1 2WR      -0.717000
     15 O21         14.8320    -6.4610    40.5930 o          1 2WR      -0.717000
     16 H1          16.9150    -6.9140    37.8210 hn         1 2WR       0.343000
     17 H2          15.9460    -7.1010    39.2820 hn         1 2WR       0.343000
     18 H3          15.2100   -11.0180    37.8680 ha         1 2WR       0.123000
     19 H4          13.8700   -12.4400    39.4240 ha         1 2WR       0.118000
     20 H5          15.1000    -9.9820    42.6960 ha         1 2WR       0.137000
     21 H6          15.8730    -8.1040    43.1200 h1         1 2WR       0.042700
     22 H7          17.0720    -6.9450    42.5530 h1         1 2WR       0.042700
@<TRIPOS>BOND
     1     1     2 ar  
     2     1    10 ar  
     3     1    11 1   
     4     2     3 1   
     5     2     6 ar  
     6     3     4 1   
     7     3     5 2   
     8     4    16 1   
     9     4    17 1   
    10     6     7 ar  
    11     6    18 1   
    12     7     8 ar  
    13     7    19 1   
    14     8     9 1   
    15     8    10 ar  
    16    10    20 1   
    17    11    12 1   
    18    12    13 1   
    19    12    21 1   
    20    12    22 1   
    21    13    14 1   
    22    13    15 1   
@<TRIPOS>SUBSTRUCTURE
     1 2WR         1 TEMP              0 ****  ****    0 ROOT
