@<TRIPOS>MOLECULE
2WT
   62    66     1     0     0
SMALL
bcc


@<TRIPOS>ATOM
      1 O2         -10.0950     1.1740    -1.4480 o          1 2WT      -0.798800
      2 C11         -2.6000    -1.8650     0.8300 ca         1 2WT       0.012200
      3 C12         -1.4210    -1.3110     0.3470 ca         1 2WT      -0.161000
      4 C13         -0.1760    -1.7700     0.7810 ca         1 2WT       0.062600
      5 C27          8.9480     0.2800    -1.2240 ca         1 2WT      -0.092000
      6 C14         -0.1220    -2.8170     1.7030 ca         1 2WT      -0.154000
      7 C16         -2.5390    -2.9080     1.7540 ca         1 2WT      -0.140000
      8 C18          3.1790    -0.4880    -0.3610 c3         1 2WT      -0.153400
      9 C20          5.4740     0.5180    -0.5760 c          1 2WT       0.667100
     10 C21          7.3470     2.1220    -0.5930 c3         1 2WT       0.150300
     11 C26         10.1810    -0.3000    -1.0740 ca         1 2WT       0.048100
     12 C25         11.1500     0.2280    -0.2330 ca         1 2WT       0.056100
     13 C24         10.9250     1.3670     0.4960 ca         1 2WT      -0.120000
     14 C23          9.6680     1.9690     0.3520 ca         1 2WT      -0.123000
     15 C22          8.6930     1.4480    -0.4850 ca         1 2WT      -0.115300
     16 C19          4.5080    -0.2220     0.3260 c3         1 2WT      -0.148400
     17 C15         -1.3050    -3.3710     2.1740 ca         1 2WT      -0.114000
     18 C28         12.0400    -1.4880    -1.3230 c5         1 2WT       0.327200
     19 N2           0.9440    -1.1340     0.2390 ns         1 2WT      -0.468100
     20 C7          -8.9970     1.5930    -0.9590 c          1 2WT       0.934200
     21 C8          -4.3790    -0.0560     0.4530 cc         1 2WT       0.032600
     22 C9          -3.8920    -1.3330     0.3850 cd         1 2WT      -0.039300
     23 O4           2.6830    -2.1760     1.2700 o          1 2WT      -0.594100
     24 C6          -5.9810    -1.3940    -0.4210 ca         1 2WT       0.015800
     25 N1          -4.8720    -2.1440    -0.1570 na         1 2WT      -0.058400
     26 C5          -5.7140    -0.0590    -0.0520 ca         1 2WT      -0.158800
     27 C1          -7.2040    -1.7820    -0.9630 ca         1 2WT      -0.289000
     28 C2          -8.1770    -0.8050    -1.1340 ca         1 2WT       0.248100
     29 C3          -7.9260     0.5510    -0.7660 ca         1 2WT      -0.271600
     30 C4          -6.7010     0.9040    -0.2300 ca         1 2WT      -0.010000
     31 N3           6.2880     1.3780     0.0570 ns         1 2WT      -0.571900
     32 O3          -8.7660     2.7630    -0.6440 o          1 2WT      -0.798800
     33 O5           5.5130     0.3220    -1.7840 o          1 2WT      -0.610100
     34 O6          10.6600    -1.4280    -1.6550 os         1 2WT      -0.317900
     35 O7          12.2530    -0.5590    -0.2680 os         1 2WT      -0.322900
     36 H1          -1.4710    -0.5180    -0.3890 ha         1 2WT       0.141000
     37 H3           0.8200    -3.2010     2.0540 ha         1 2WT       0.158000
     38 H4          -3.4470    -3.3410     2.1540 ha         1 2WT       0.140000
     39 H5           3.3450    -1.0120    -1.3070 hc         1 2WT       0.075200
     40 H6           2.6900     0.4540    -0.6180 hc         1 2WT       0.075200
     41 H7           7.3950     3.1100    -0.1350 h1         1 2WT       0.064700
     42 H8           7.0720     2.2670    -1.6370 h1         1 2WT       0.064700
     43 H10          9.4580     2.8730     0.9100 ha         1 2WT       0.133000
     44 H11          4.3520     0.3250     1.2580 hc         1 2WT       0.073200
     45 H12          4.9840    -1.1680     0.6000 hc         1 2WT       0.073200
     46 H13         -1.2540    -4.1780     2.8920 ha         1 2WT       0.126000
     47 H14         12.2970    -2.4920    -0.9890 h2         1 2WT       0.063200
     48 H15          0.7350    -0.4050    -0.4260 hn         1 2WT       0.319500
     49 H20         -7.4140    -2.8080    -1.2350 ha         1 2WT       0.127000
     50 H21         -6.5190     1.9360     0.0450 ha         1 2WT       0.154000
     51 H22          6.2210     1.4550     1.0580 hn         1 2WT       0.314500
     52 H25         12.6440    -1.2060    -2.1930 h2         1 2WT       0.063200
     53 C10         -4.7460    -3.5490    -0.4680 c3         1 2WT       0.039600
     54 C17          2.2630    -1.3510     0.4790 c          1 2WT       0.673100
     55 O1          -9.3590    -1.1440    -1.6460 oh         1 2WT      -0.591100
     56 H2           8.2030    -0.1420    -1.8860 ha         1 2WT       0.172000
     57 H16         -5.1220    -4.1760     0.3400 h1         1 2WT       0.041367
     58 H17         -5.3070    -3.7740    -1.3730 h1         1 2WT       0.041367
     59 H18         -3.7040    -3.7990    -0.6480 h1         1 2WT       0.041367
     60 H19         -9.8780    -0.2560    -1.6630 ho         1 2WT       0.512000
     61 I           -3.4320     1.5950     1.2700 i          1 2WT      -0.166800
     62 H9          11.6750     1.7830     1.1550 ha         1 2WT       0.150000
@<TRIPOS>BOND
     1     1    20 1   
     2     2     3 ar  
     3     2     7 ar  
     4     2    22 1   
     5     3     4 ar  
     6     3    36 1   
     7     4     6 ar  
     8     4    19 1   
     9     5    11 ar  
    10     5    15 ar  
    11     5    56 1   
    12     6    17 ar  
    13     6    37 1   
    14     7    17 ar  
    15     7    38 1   
    16     8    16 1   
    17     8    39 1   
    18     8    40 1   
    19     8    54 1   
    20     9    16 1   
    21     9    31 1   
    22     9    33 2   
    23    10    15 1   
    24    10    31 1   
    25    10    41 1   
    26    10    42 1   
    27    11    12 ar  
    28    11    34 1   
    29    12    13 ar  
    30    12    35 1   
    31    13    14 ar  
    32    13    62 1   
    33    14    15 ar  
    34    14    43 1   
    35    16    44 1   
    36    16    45 1   
    37    17    46 1   
    38    18    34 1   
    39    18    35 1   
    40    18    47 1   
    41    18    52 1   
    42    19    48 1   
    43    19    54 1   
    44    20    29 1   
    45    20    32 1   
    46    21    22 2   
    47    21    26 1   
    48    21    61 1   
    49    22    25 1   
    50    23    54 2   
    51    24    25 1   
    52    24    26 ar  
    53    24    27 ar  
    54    25    53 1   
    55    26    30 ar  
    56    27    28 ar  
    57    27    49 1   
    58    28    29 ar  
    59    28    55 1   
    60    29    30 ar  
    61    30    50 1   
    62    31    51 1   
    63    53    57 1   
    64    53    58 1   
    65    53    59 1   
    66    55    60 1   
@<TRIPOS>SUBSTRUCTURE
     1 2WT         1 TEMP              0 ****  ****    0 ROOT
