@<TRIPOS>MOLECULE
2WT
   62    66     1     0     0
SMALL
No Charge or Current Charge


@<TRIPOS>ATOM
      1 O2          -8.4940     3.2670    -0.3040 o          1 2WT      -0.693500
      2 C11         -2.3130    -2.4420     0.6650 ca         1 2WT       0.012200
      3 C12         -1.0760    -2.1700     0.0430 ca         1 2WT      -0.143000
      4 C13          0.0150    -3.0540     0.1470 ca         1 2WT      -0.030000
      5 C27          8.8350     0.6700    -1.0650 ca         1 2WT      -0.074000
      6 C14         -0.1370    -4.2420     0.8930 ca         1 2WT      -0.136000
      7 C16         -2.4430    -3.6440     1.3910 ca         1 2WT      -0.122000
      8 C18          3.4770    -2.5410    -1.4770 c3         1 2WT      -0.153400
      9 C20          5.6420    -1.1770    -1.4240 c          1 2WT       0.600100
     10 C21          6.5070     1.1170    -1.9860 c3         1 2WT       0.150300
     11 C26          9.8900     1.0410    -0.2210 ca         1 2WT       0.048100
     12 C25          9.8250     2.1570     0.5630 ca         1 2WT       0.056100
     13 C24          8.6990     2.9880     0.5660 ca         1 2WT      -0.102000
     14 C23          7.6160     2.6420    -0.2710 ca         1 2WT      -0.105000
     15 C22          7.6790     1.4850    -1.0900 ca         1 2WT      -0.115300
     16 C19          4.6020    -1.9340    -0.5900 c3         1 2WT      -0.148400
     17 C15         -1.3640    -4.5330     1.5080 ca         1 2WT      -0.096000
     18 C28         11.7660     1.1680     0.9440 c5         1 2WT       0.373600
     19 N2           1.2180    -2.6910    -0.5200 ns         1 2WT      -0.142000
     20 C7          -7.2790     3.1640    -0.1950 c          1 2WT       0.723600
     21 C8          -3.4230    -0.1120     0.4100 cc         1 2WT       0.032600
     22 C9          -3.4620    -1.5070     0.5560 cd         1 2WT      -0.039300
     23 O4           2.7170    -4.4240    -0.1770 o          1 2WT      -0.594100
     24 C6          -5.5790    -0.7810     0.2570 ca         1 2WT       0.015800
     25 N1          -4.8160    -1.9270     0.4140 na         1 2WT      -0.087700
     26 C5          -4.7800     0.3200     0.2400 ca         1 2WT      -0.158800
     27 C1          -6.9690    -0.6600     0.1350 ca         1 2WT      -0.271000
     28 C2          -7.5200     0.6240    -0.0140 ca         1 2WT       0.248100
     29 C3          -6.6970     1.7800    -0.0380 ca         1 2WT      -0.271600
     30 C4          -5.2940     1.6160     0.0960 ca         1 2WT       0.008000
     31 N3           5.5940     0.1930    -1.3130 ns         1 2WT      -0.504900
     32 O3          -6.5200     4.1200    -0.2090 o          1 2WT      -0.693500
     33 O5           6.4690    -1.7500    -2.1180 o          1 2WT      -0.610100
     34 O6          11.0670     0.3780    -0.0820 os         1 2WT      -0.341100
     35 O7          10.9510     2.3420     1.2980 os         1 2WT      -0.346100
     36 H1          -0.9660    -1.2860    -0.5760 ha         1 2WT       0.123000
     37 H3           0.6770    -4.9510     1.0060 ha         1 2WT       0.140000
     38 H4          -3.3710    -3.8790     1.9040 ha         1 2WT       0.122000
     39 H5           3.9360    -3.2300    -2.1970 hc         1 2WT       0.075200
     40 H6           2.9810    -1.7250    -2.0170 hc         1 2WT       0.075200
     41 H7           5.9510     2.0230    -2.2600 h1         1 2WT       0.064700
     42 H8           6.8750     0.6640    -2.9170 h1         1 2WT       0.064700
     43 H10          6.7280     3.2710    -0.2840 ha         1 2WT       0.115000
     44 H11          4.1450    -1.2580     0.1420 hc         1 2WT       0.073200
     45 H12          5.1120    -2.7520    -0.0660 hc         1 2WT       0.073200
     46 H13         -1.4770    -5.4490     2.0840 ha         1 2WT       0.108000
     47 H14         11.9120     0.5490     1.8370 h2         1 2WT       0.063200
     48 H15          1.1680    -1.7940    -0.9850 hn         1 2WT       0.153000
     49 H20         -7.6140    -1.5340     0.1580 ha         1 2WT       0.109000
     50 H21         -4.6200     2.4710     0.0910 ha         1 2WT       0.136000
     51 H22          4.8830     0.5800    -0.7040 hn         1 2WT       0.314500
     52 H25         12.7360     1.4990     0.5540 h2         1 2WT       0.063200
     53 C10         -5.3470    -3.2790     0.1600 c3         1 2WT       0.068900
     54 C17          2.4490    -3.3240    -0.6480 c          1 2WT       0.606100
     55 O1          -8.8660     0.7380    -0.1340 oh         1 2WT      -0.630100
     56 H2           8.9090    -0.2240    -1.6800 ha         1 2WT       0.154000
     57 H16         -5.7030    -3.7160     1.1000 h1         1 2WT       0.041367
     58 H17         -6.1780    -3.2290    -0.5550 h1         1 2WT       0.041367
     59 H18         -4.5630    -3.9160    -0.2680 h1         1 2WT       0.041367
     60 H19         -9.0140     1.7240    -0.2240 ho         1 2WT       0.551000
     61 I           -1.7220     1.1520     0.6720 i          1 2WT      -0.166800
     62 H9           8.6620     3.8740     1.1950 ha         1 2WT       0.132000
@<TRIPOS>BOND
     1     1    20 1   
     2     2     3 ar  
     3     2     7 ar  
     4     2    22 1   
     5     3     4 ar  
     6     3    36 1   
     7     4     6 ar  
     8     4    19 1   
     9     5    11 ar  
    10     5    15 ar  
    11     5    56 1   
    12     6    17 ar  
    13     6    37 1   
    14     7    17 ar  
    15     7    38 1   
    16     8    16 1   
    17     8    39 1   
    18     8    40 1   
    19     8    54 1   
    20     9    16 1   
    21     9    31 1   
    22     9    33 2   
    23    10    15 1   
    24    10    31 1   
    25    10    41 1   
    26    10    42 1   
    27    11    12 ar  
    28    11    34 1   
    29    12    13 ar  
    30    12    35 1   
    31    13    14 ar  
    32    13    62 1   
    33    14    15 ar  
    34    14    43 1   
    35    16    44 1   
    36    16    45 1   
    37    17    46 1   
    38    18    34 1   
    39    18    35 1   
    40    18    47 1   
    41    18    52 1   
    42    19    48 1   
    43    19    54 1   
    44    20    29 1   
    45    20    32 1   
    46    21    22 2   
    47    21    26 1   
    48    21    61 1   
    49    22    25 1   
    50    23    54 2   
    51    24    25 1   
    52    24    26 ar  
    53    24    27 ar  
    54    25    53 1   
    55    26    30 ar  
    56    27    28 ar  
    57    27    49 1   
    58    28    29 ar  
    59    28    55 1   
    60    29    30 ar  
    61    30    50 1   
    62    31    51 1   
    63    53    57 1   
    64    53    58 1   
    65    53    59 1   
    66    55    60 1   
@<TRIPOS>SUBSTRUCTURE
     1 2WT         1 TEMP              0 ****  ****    0 ROOT
