@<TRIPOS>MOLECULE
2WU
   27    29     1     0     0
SMALL
No Charge or Current Charge


@<TRIPOS>ATOM
      1 N1           2.5710     1.0380    -0.0050 na         1 2WU      -0.361600
      2 N3           2.5070    -1.2680    -0.0560 nc         1 2WU      -0.645100
      3 C4           3.2540    -0.1670    -0.0420 cd         1 2WU       0.668700
      4 C5           5.5750     0.8200    -0.0350 c3         1 2WU       0.218100
      5 C6           1.2300    -0.7260    -0.0260 ca         1 2WU       0.074400
      6 C7           0.0000    -1.4010    -0.0240 ca         1 2WU       0.012000
      7 C8          -1.1930    -0.6370     0.0090 ca         1 2WU      -0.237600
      8 C10         -3.4100     0.9000     0.0710 cc         1 2WU       0.709800
      9 C1          -1.1480     0.7800     0.0410 ca         1 2WU       0.226400
     10 C2           0.1060     1.4250     0.0380 ca         1 2WU      -0.135000
     11 C3           1.2640     0.6400     0.0040 ca         1 2WU      -0.033200
     12 N2           4.5930    -0.2740    -0.0630 nu         1 2WU      -0.912400
     13 C9          -2.5180    -1.2990     0.0160 c          1 2WU       0.592600
     14 O1          -2.6800    -2.5090    -0.0000 o          1 2WU      -0.544000
     15 N4          -3.5540    -0.4370     0.0440 ns         1 2WU      -0.454400
     16 N5          -4.5300     1.5990     0.0960 nv         1 2WU      -1.037200
     17 N6          -2.2970     1.5880     0.0740 nd         1 2WU      -0.708100
     18 H1           2.9670     1.9650     0.0100 hn         1 2WU       0.356000
     19 H3           5.4570     1.4190     0.8780 h1         1 2WU       0.038033
     20 H4           6.5970     0.4190    -0.0570 h1         1 2WU       0.038033
     21 H5           5.4430     1.4770    -0.9050 h1         1 2WU       0.038033
     22 H6          -0.0240    -2.4880    -0.0480 ha         1 2WU       0.148000
     23 H7           0.1700     2.5090     0.0610 ha         1 2WU       0.131000
     24 H8           4.9200    -1.2390    -0.0810 hn         1 2WU       0.519000
     25 H9          -4.4760    -0.8380     0.0730 hn         1 2WU       0.323500
     26 H10         -5.3340     1.1890    -0.3630 hn         1 2WU       0.488000
     27 H11         -4.3980     2.5890    -0.0670 hn         1 2WU       0.488000
@<TRIPOS>BOND
     1     1     3 1   
     2     1    11 1   
     3     1    18 1   
     4     2     3 2   
     5     2     5 1   
     6     3    12 1   
     7     4    12 1   
     8     4    19 1   
     9     4    20 1   
    10     4    21 1   
    11     5     6 ar  
    12     5    11 ar  
    13     6     7 ar  
    14     6    22 1   
    15     7     9 ar  
    16     7    13 1   
    17     8    15 1   
    18     8    16 1   
    19     8    17 2   
    20     9    10 ar  
    21     9    17 1   
    22    10    11 ar  
    23    10    23 1   
    24    12    24 1   
    25    13    14 2   
    26    13    15 1   
    27    15    25 1   
    28    16    26 1   
    29    16    27 1   
@<TRIPOS>SUBSTRUCTURE
     1 2WU         1 TEMP              0 ****  ****    0 ROOT
