@<TRIPOS>MOLECULE
2WU
   27    29     1     0     0
SMALL
bcc


@<TRIPOS>ATOM
      1 N1           2.6020     0.9250    -0.0670 na         1 2WU      -0.311300
      2 N3           2.5030    -1.3110    -0.0700 nc         1 2WU      -0.645100
      3 C4           3.2890    -0.2610    -0.0820 cd         1 2WU       0.668700
      4 C5           5.4620     0.8710     0.0230 c3         1 2WU       0.218100
      5 C6           1.2270    -0.7970    -0.0490 ca         1 2WU       0.074400
      6 C7           0.0060    -1.4310    -0.0300 ca         1 2WU      -0.006000
      7 C8          -1.1550    -0.6450    -0.0070 ca         1 2WU      -0.237600
      8 C10         -3.3790     0.9550     0.0440 cc         1 2WU       0.709800
      9 C1          -1.1040     0.7690    -0.0040 ca         1 2WU       0.226400
     10 C2           0.1420     1.4130    -0.0250 ca         1 2WU      -0.153000
     11 C3           1.2660     0.6210    -0.0460 ca         1 2WU      -0.033200
     12 N2           4.6270    -0.2960    -0.1220 nu         1 2WU      -0.857200
     13 C9          -2.4560    -1.2880     0.0150 c          1 2WU       0.735100
     14 O1          -2.6560    -2.4930     0.0140 o          1 2WU      -0.619500
     15 N4          -3.5140    -0.4070     0.0420 ns         1 2WU      -0.521400
     16 N5          -4.5270     1.6630     0.1280 nv         1 2WU      -0.926800
     17 N6          -2.2320     1.5500     0.0170 nd         1 2WU      -0.708100
     18 H1           2.9980     1.8520    -0.0830 hn         1 2WU       0.305700
     19 H3           5.3100     1.3820     0.9780 h1         1 2WU       0.038033
     20 H4           6.5000     0.5570    -0.0280 h1         1 2WU       0.038033
     21 H5           5.2950     1.5870    -0.7830 h1         1 2WU       0.038033
     22 H6          -0.0660    -2.5100    -0.0320 ha         1 2WU       0.166000
     23 H7           0.1940     2.4930    -0.0230 ha         1 2WU       0.149000
     24 H8           5.0470    -1.2050    -0.0290 hn         1 2WU       0.463800
     25 H9          -4.4410    -0.8120     0.0720 hn         1 2WU       0.323500
     26 H10         -5.3940     1.2410    -0.1580 hn         1 2WU       0.432800
     27 H11         -4.4530     2.6500    -0.0550 hn         1 2WU       0.432800
@<TRIPOS>BOND
     1     1     3 1   
     2     1    11 1   
     3     1    18 1   
     4     2     3 2   
     5     2     5 1   
     6     3    12 1   
     7     4    12 1   
     8     4    19 1   
     9     4    20 1   
    10     4    21 1   
    11     5     6 ar  
    12     5    11 ar  
    13     6     7 ar  
    14     6    22 1   
    15     7     9 ar  
    16     7    13 1   
    17     8    15 1   
    18     8    16 1   
    19     8    17 2   
    20     9    10 ar  
    21     9    17 1   
    22    10    11 ar  
    23    10    23 1   
    24    12    24 1   
    25    13    14 2   
    26    13    15 1   
    27    15    25 1   
    28    16    26 1   
    29    16    27 1   
@<TRIPOS>SUBSTRUCTURE
     1 2WU         1 TEMP              0 ****  ****    0 ROOT
