@<TRIPOS>MOLECULE
2WV
   87    90     1     0     0
SMALL
No Charge or Current Charge


@<TRIPOS>ATOM
      1 C7         -32.6750    18.7700    -5.4620 c5         1 2WV      -0.052700
      2 C8         -32.2480    19.5490    -4.1630 c5         1 2WV      -0.077400
      3 C9         -30.7490    19.1970    -3.9160 c5         1 2WV      -0.071400
      4 C1         -34.2790    18.4350    -5.4930 c3         1 2WV      -0.049700
      5 C5         -37.5710    21.8140    -5.8860 c3         1 2WV      -0.069400
      6 C6         -38.2790    23.1330    -5.5030 c3         1 2WV       0.166600
      7 C4         -37.4860    20.7710    -4.7410 c3         1 2WV       0.174300
      8 C2         -35.1860    19.7330    -5.4020 c3         1 2WV      -0.074400
      9 C          -34.7560    17.5500    -6.7030 c3         1 2WV      -0.087100
     10 O          -38.8120    20.3770    -4.3640 oh         1 2WV      -0.665000
     11 C10        -30.3570    18.4330    -5.2030 c5         1 2WV      -0.063700
     12 C11        -29.0400    17.6110    -5.1650 c6         1 2WV      -0.045700
     13 C12        -27.7950    18.4860    -4.8650 c6         1 2WV      -0.070400
     14 C13        -26.4810    17.6640    -4.9590 c6         1 2WV      -0.068400
     15 C14        -26.2980    16.9490    -6.3360 c6         1 2WV      -0.048700
     16 C15        -26.0120    17.9960    -7.4630 c6         1 2WV      -0.068400
     17 C16        -25.7850    17.3390    -8.8510 c6         1 2WV      -0.060700
     18 C17        -27.0160    16.4540    -9.2020 c6         1 2WV      -0.069400
     19 C18        -27.2650    15.3930    -8.1040 c6         1 2WV      -0.069400
     20 C19        -27.5100    15.9990    -6.6780 c6         1 2WV      -0.028000
     21 C20        -27.5420    14.7930    -5.6760 c3         1 2WV      -0.085100
     22 C21        -28.8700    16.8490    -6.5750 c6         1 2WV      -0.043700
     23 C22        -30.1650    16.0300    -6.9950 c6         1 2WV      -0.071400
     24 C23        -31.4500    16.9040    -6.9080 c6         1 2WV      -0.062400
     25 C24        -31.6380    17.5810    -5.5070 c5         1 2WV      -0.037000
     26 C25        -31.9640    16.4670    -4.4520 c3         1 2WV      -0.078100
     27 C26        -25.4860    18.4280    -9.9430 c3         1 2WV      -0.098400
     28 C27        -24.5400    18.0550   -11.1290 c3         1 2WV       0.183000
     29 C28        -25.0050    16.8180   -11.9310 c3         1 2WV      -0.100100
     30 C29        -24.3880    19.2670   -12.0800 c3         1 2WV      -0.100100
     31 O2         -23.2440    17.7660   -10.6020 oh         1 2WV      -0.661000
     32 H1         -32.5110    19.4190    -6.3320 hc         1 2WV       0.044700
     33 H2         -32.3870    20.6290    -4.2900 hc         1 2WV       0.040200
     34 H3         -32.8550    19.2580    -3.2980 hc         1 2WV       0.040200
     35 H4         -30.6210    18.5750    -3.0230 hc         1 2WV       0.041200
     36 H5         -30.1370    20.0940    -3.7690 hc         1 2WV       0.041200
     37 H6         -37.9990    24.6790    -4.3320 ho         1 2WV       0.441000
     38 H7         -34.5630    17.8420    -4.5990 hc         1 2WV       0.045700
     39 H9         -36.5640    22.0610    -6.2410 hc         1 2WV       0.052200
     40 H10        -38.4050    23.7390    -6.4100 h1         1 2WV       0.023200
     41 H11        -39.2810    22.9170    -5.1090 h1         1 2WV       0.023200
     42 H12        -36.9830    21.2390    -3.8830 h1         1 2WV       0.044700
     43 H15        -34.8020    20.3730    -4.6000 hc         1 2WV       0.041700
     44 H16        -35.0700    20.3030    -6.3310 hc         1 2WV       0.041700
     45 H17        -34.3720    16.5310    -6.6080 hc         1 2WV       0.032700
     46 H18        -35.8450    17.4550    -6.7450 hc         1 2WV       0.032700
     47 H19        -34.4110    17.9730    -7.6540 hc         1 2WV       0.032700
     48 H20        -38.7220    19.7710    -3.5960 ho         1 2WV       0.440000
     49 H21        -30.1940    19.1640    -6.0060 hc         1 2WV       0.043700
     50 H22        -29.1260    16.8680    -4.3620 hc         1 2WV       0.049700
     51 H23        -27.7580    19.3410    -5.5530 hc         1 2WV       0.037700
     52 H24        -27.8760    18.9140    -3.8570 hc         1 2WV       0.037700
     53 H25        -26.4550    16.9270    -4.1460 hc         1 2WV       0.038700
     54 H26        -25.6260    18.3290    -4.7730 hc         1 2WV       0.038700
     55 H27        -25.3950    16.3260    -6.2540 hc         1 2WV       0.044700
     56 H28        -25.1190    18.5740    -7.1890 hc         1 2WV       0.036200
     57 H29        -26.8270    18.7270    -7.5410 hc         1 2WV       0.036200
     58 H30        -24.8960    16.6970    -8.7780 hc         1 2WV       0.061700
     59 H31        -27.9090    17.0780    -9.3380 hc         1 2WV       0.038200
     60 H32        -26.8700    15.9360   -10.1550 hc         1 2WV       0.038200
     61 H33        -28.0940    14.7400    -8.4030 hc         1 2WV       0.039200
     62 H34        -26.3870    14.7330    -8.0680 hc         1 2WV       0.039200
     63 H35        -27.7670    15.0950    -4.6490 hc         1 2WV       0.032367
     64 H36        -28.2910    14.0470    -5.9640 hc         1 2WV       0.032367
     65 H37        -26.5760    14.2740    -5.6510 hc         1 2WV       0.032367
     66 H38        -28.8020    17.6490    -7.3220 hc         1 2WV       0.045700
     67 H39        -30.2800    15.1390    -6.3660 hc         1 2WV       0.038200
     68 H40        -30.0720    15.6680    -8.0270 hc         1 2WV       0.038200
     69 H41        -31.4040    17.6790    -7.6850 hc         1 2WV       0.038700
     70 H42        -32.3070    16.2720    -7.1630 hc         1 2WV       0.038700
     71 H43        -32.1890    16.8740    -3.4610 hc         1 2WV       0.031700
     72 H44        -32.8410    15.8850    -4.7570 hc         1 2WV       0.031700
     73 H45        -31.1400    15.7580    -4.3240 hc         1 2WV       0.031700
     74 H46        -25.0490    19.3080    -9.4530 hc         1 2WV       0.040700
     75 H47        -26.4370    18.7880   -10.3570 hc         1 2WV       0.040700
     76 H48        -24.9380    15.9060   -11.3260 hc         1 2WV       0.041033
     77 H49        -26.0400    16.9410   -12.2710 hc         1 2WV       0.041033
     78 H50        -24.3740    16.6680   -12.8150 hc         1 2WV       0.041033
     79 H51        -24.0240    20.1500   -11.5410 hc         1 2WV       0.041033
     80 H52        -23.6780    19.0480   -12.8870 hc         1 2WV       0.041033
     81 H53        -25.3510    19.5230   -12.5370 hc         1 2WV       0.041033
     82 H54        -22.9930    18.5250   -10.0340 ho         1 2WV       0.437000
     83 C3         -36.6960    19.4920    -5.1200 c3         1 2WV      -0.113400
     84 H8         -38.0990    21.3670    -6.7370 hc         1 2WV       0.052200
     85 H13        -37.1730    19.0380    -5.9960 hc         1 2WV       0.043200
     86 O1         -37.5020    23.8560    -4.5390 oh         1 2WV      -0.667000
     87 H14        -36.7830    18.7700    -4.2990 hc         1 2WV       0.043200
@<TRIPOS>BOND
     1     1     2 1   
     2     1     4 1   
     3     1    25 1   
     4     1    32 1   
     5     2     3 1   
     6     2    33 1   
     7     2    34 1   
     8     3    11 1   
     9     3    35 1   
    10     3    36 1   
    11     4     8 1   
    12     4     9 1   
    13     4    38 1   
    14     5     6 1   
    15     5     7 1   
    16     5    39 1   
    17     5    84 1   
    18     6    40 1   
    19     6    41 1   
    20     6    86 1   
    21     7    10 1   
    22     7    42 1   
    23     7    83 1   
    24     8    43 1   
    25     8    44 1   
    26     8    83 1   
    27     9    45 1   
    28     9    46 1   
    29     9    47 1   
    30    10    48 1   
    31    11    12 1   
    32    11    25 1   
    33    11    49 1   
    34    12    13 1   
    35    12    22 1   
    36    12    50 1   
    37    13    14 1   
    38    13    51 1   
    39    13    52 1   
    40    14    15 1   
    41    14    53 1   
    42    14    54 1   
    43    15    16 1   
    44    15    20 1   
    45    15    55 1   
    46    16    17 1   
    47    16    56 1   
    48    16    57 1   
    49    17    18 1   
    50    17    27 1   
    51    17    58 1   
    52    18    19 1   
    53    18    59 1   
    54    18    60 1   
    55    19    20 1   
    56    19    61 1   
    57    19    62 1   
    58    20    21 1   
    59    20    22 1   
    60    21    63 1   
    61    21    64 1   
    62    21    65 1   
    63    22    23 1   
    64    22    66 1   
    65    23    24 1   
    66    23    67 1   
    67    23    68 1   
    68    24    25 1   
    69    24    69 1   
    70    24    70 1   
    71    25    26 1   
    72    26    71 1   
    73    26    72 1   
    74    26    73 1   
    75    27    28 1   
    76    27    74 1   
    77    27    75 1   
    78    28    29 1   
    79    28    30 1   
    80    28    31 1   
    81    29    76 1   
    82    29    77 1   
    83    29    78 1   
    84    30    79 1   
    85    30    80 1   
    86    30    81 1   
    87    31    82 1   
    88    37    86 1   
    89    83    85 1   
    90    83    87 1   
@<TRIPOS>SUBSTRUCTURE
     1 2WV         1 TEMP              0 ****  ****    0 ROOT
