@<TRIPOS>MOLECULE
2WV
   87    90     1     0     0
SMALL
abcg2


@<TRIPOS>ATOM
      1 C7         -32.7200    18.8790    -5.5140 c5         1 2WV      -0.052700
      2 C8         -32.1850    19.6780    -4.2940 c5         1 2WV      -0.077400
      3 C9         -30.7090    19.2810    -4.1000 c5         1 2WV      -0.071400
      4 C1         -34.2030    18.5140    -5.3600 c3         1 2WV      -0.049700
      5 C5         -37.7230    21.4080    -5.7370 c3         1 2WV      -0.069400
      6 C6         -38.5450    22.6760    -5.6050 c3         1 2WV       0.166600
      7 C4         -37.2790    20.7830    -4.4210 c3         1 2WV       0.174300
      8 C2         -35.0550    19.7810    -5.1910 c3         1 2WV      -0.074400
      9 C          -34.7350    17.6770    -6.5210 c3         1 2WV      -0.087100
     10 O          -38.4510    20.5020    -3.6750 oh         1 2WV      -0.665000
     11 C10        -30.3820    18.4900    -5.3590 c5         1 2WV      -0.063700
     12 C11        -29.1360    17.6160    -5.3650 c6         1 2WV      -0.045700
     13 C12        -27.8860    18.4120    -5.0050 c6         1 2WV      -0.070400
     14 C13        -26.6310    17.5530    -5.0840 c6         1 2WV      -0.068400
     15 C14        -26.4700    16.8840    -6.4490 c6         1 2WV      -0.048700
     16 C15        -26.0560    17.9090    -7.5090 c6         1 2WV      -0.068400
     17 C16        -25.8440    17.2990    -8.8920 c6         1 2WV      -0.060700
     18 C17        -27.1210    16.5680    -9.3010 c6         1 2WV      -0.069400
     19 C18        -27.5010    15.5180    -8.2670 c6         1 2WV      -0.069400
     20 C19        -27.7240    16.0640    -6.8450 c6         1 2WV      -0.028000
     21 C20        -27.8480    14.8430    -5.9240 c3         1 2WV      -0.085100
     22 C21        -28.9850    16.9650    -6.7550 c6         1 2WV      -0.043700
     23 C22        -30.2790    16.2650    -7.1880 c6         1 2WV      -0.071400
     24 C23        -31.5220    17.1530    -7.0800 c6         1 2WV      -0.062400
     25 C24        -31.6860    17.7340    -5.6750 c5         1 2WV      -0.037000
     26 C25        -31.9780    16.6210    -4.6620 c3         1 2WV      -0.078100
     27 C26        -25.4060    18.3630    -9.9080 c3         1 2WV      -0.098400
     28 C27        -24.2810    17.9650   -10.8740 c3         1 2WV       0.183000
     29 C28        -24.6370    16.7390   -11.7040 c3         1 2WV      -0.100100
     30 C29        -23.9810    19.1440   -11.7990 c3         1 2WV      -0.100100
     31 O2         -23.1080    17.6150   -10.1460 oh         1 2WV      -0.661000
     32 H1         -32.6310    19.5110    -6.4090 hc         1 2WV       0.044700
     33 H2         -32.2890    20.7520    -4.4530 hc         1 2WV       0.040200
     34 H3         -32.7700    19.4450    -3.4000 hc         1 2WV       0.040200
     35 H4         -30.5830    18.6580    -3.2100 hc         1 2WV       0.041200
     36 H5         -30.0590    20.1480    -3.9710 hc         1 2WV       0.041200
     37 H6         -38.3350    24.4360    -4.8150 ho         1 2WV       0.441000
     38 H7         -34.3060    17.9250    -4.4380 hc         1 2WV       0.045700
     39 H9         -36.8420    21.6180    -6.3490 hc         1 2WV       0.052200
     40 H10        -38.8440    23.0010    -6.6100 h1         1 2WV       0.023200
     41 H11        -39.4700    22.4640    -5.0570 h1         1 2WV       0.023200
     42 H12        -36.6520    21.5070    -3.8800 h1         1 2WV       0.044700
     43 H15        -34.5570    20.4760    -4.5100 hc         1 2WV       0.041700
     44 H16        -35.1100    20.2940    -6.1580 hc         1 2WV       0.041700
     45 H17        -34.2780    16.6910    -6.5600 hc         1 2WV       0.032700
     46 H18        -35.8120    17.5220    -6.4440 hc         1 2WV       0.032700
     47 H19        -34.5410    18.1710    -7.4770 hc         1 2WV       0.032700
     48 H20        -38.1820    20.1620    -2.8160 ho         1 2WV       0.440000
     49 H21        -30.2520    19.2230    -6.1710 hc         1 2WV       0.043700
     50 H22        -29.2620    16.8340    -4.6060 hc         1 2WV       0.049700
     51 H23        -27.8050    19.2730    -5.6790 hc         1 2WV       0.037700
     52 H24        -27.9810    18.8260    -3.9970 hc         1 2WV       0.037700
     53 H25        -26.6720    16.7920    -4.2980 hc         1 2WV       0.038700
     54 H26        -25.7450    18.1580    -4.8700 hc         1 2WV       0.038700
     55 H27        -25.6400    16.1670    -6.3740 hc         1 2WV       0.044700
     56 H28        -25.1270    18.3870    -7.1800 hc         1 2WV       0.036200
     57 H29        -26.7930    18.7160    -7.5900 hc         1 2WV       0.036200
     58 H30        -25.0470    16.5510    -8.7940 hc         1 2WV       0.061700
     59 H31        -27.9270    17.3020    -9.4240 hc         1 2WV       0.038200
     60 H32        -26.9980    16.0910   -10.2770 hc         1 2WV       0.038200
     61 H33        -28.3790    14.9590    -8.6000 hc         1 2WV       0.039200
     62 H34        -26.6880    14.7830    -8.2150 hc         1 2WV       0.039200
     63 H35        -28.0830    15.0980    -4.8910 hc         1 2WV       0.032367
     64 H36        -28.6230    14.1590    -6.2730 hc         1 2WV       0.032367
     65 H37        -26.9090    14.2840    -5.9150 hc         1 2WV       0.032367
     66 H38        -28.8420    17.7970    -7.4580 hc         1 2WV       0.045700
     67 H39        -30.4360    15.3550    -6.6020 hc         1 2WV       0.038200
     68 H40        -30.1900    15.9330    -8.2260 hc         1 2WV       0.038200
     69 H41        -31.4370    17.9820    -7.7930 hc         1 2WV       0.038700
     70 H42        -32.3940    16.5730    -7.3880 hc         1 2WV       0.038700
     71 H43        -32.1580    17.0080    -3.6570 hc         1 2WV       0.031700
     72 H44        -32.8700    16.0640    -4.9520 hc         1 2WV       0.031700
     73 H45        -31.1690    15.8950    -4.5810 hc         1 2WV       0.031700
     74 H46        -25.0630    19.2570    -9.3710 hc         1 2WV       0.040700
     75 H47        -26.2710    18.6950   -10.4920 hc         1 2WV       0.040700
     76 H48        -24.8150    15.8620   -11.0810 hc         1 2WV       0.041033
     77 H49        -25.5380    16.9240   -12.2900 hc         1 2WV       0.041033
     78 H50        -23.8310    16.4980   -12.4000 hc         1 2WV       0.041033
     79 H51        -23.6850    20.0270   -11.2270 hc         1 2WV       0.041033
     80 H52        -23.1710    18.9040   -12.4910 hc         1 2WV       0.041033
     81 H53        -24.8570    19.4150   -12.3910 hc         1 2WV       0.041033
     82 H54        -22.8660    18.3670    -9.5950 ho         1 2WV       0.437000
     83 C3         -36.4530    19.5160    -4.6420 c3         1 2WV      -0.113400
     84 H8         -38.3160    20.6780    -6.2970 hc         1 2WV       0.052200
     85 H13        -37.0130    18.8370    -5.2920 hc         1 2WV       0.043200
     86 O1         -37.7750    23.6680    -4.9570 oh         1 2WV      -0.667000
     87 H14        -36.3460    19.0030    -3.6780 hc         1 2WV       0.043200
@<TRIPOS>BOND
     1     1     2 1   
     2     1     4 1   
     3     1    25 1   
     4     1    32 1   
     5     2     3 1   
     6     2    33 1   
     7     2    34 1   
     8     3    11 1   
     9     3    35 1   
    10     3    36 1   
    11     4     8 1   
    12     4     9 1   
    13     4    38 1   
    14     5     6 1   
    15     5     7 1   
    16     5    39 1   
    17     5    84 1   
    18     6    40 1   
    19     6    41 1   
    20     6    86 1   
    21     7    10 1   
    22     7    42 1   
    23     7    83 1   
    24     8    43 1   
    25     8    44 1   
    26     8    83 1   
    27     9    45 1   
    28     9    46 1   
    29     9    47 1   
    30    10    48 1   
    31    11    12 1   
    32    11    25 1   
    33    11    49 1   
    34    12    13 1   
    35    12    22 1   
    36    12    50 1   
    37    13    14 1   
    38    13    51 1   
    39    13    52 1   
    40    14    15 1   
    41    14    53 1   
    42    14    54 1   
    43    15    16 1   
    44    15    20 1   
    45    15    55 1   
    46    16    17 1   
    47    16    56 1   
    48    16    57 1   
    49    17    18 1   
    50    17    27 1   
    51    17    58 1   
    52    18    19 1   
    53    18    59 1   
    54    18    60 1   
    55    19    20 1   
    56    19    61 1   
    57    19    62 1   
    58    20    21 1   
    59    20    22 1   
    60    21    63 1   
    61    21    64 1   
    62    21    65 1   
    63    22    23 1   
    64    22    66 1   
    65    23    24 1   
    66    23    67 1   
    67    23    68 1   
    68    24    25 1   
    69    24    69 1   
    70    24    70 1   
    71    25    26 1   
    72    26    71 1   
    73    26    72 1   
    74    26    73 1   
    75    27    28 1   
    76    27    74 1   
    77    27    75 1   
    78    28    29 1   
    79    28    30 1   
    80    28    31 1   
    81    29    76 1   
    82    29    77 1   
    83    29    78 1   
    84    30    79 1   
    85    30    80 1   
    86    30    81 1   
    87    31    82 1   
    88    37    86 1   
    89    83    85 1   
    90    83    87 1   
@<TRIPOS>SUBSTRUCTURE
     1 2WV         1 TEMP              0 ****  ****    0 ROOT
