@<TRIPOS>MOLECULE
2WW
   22    21     1     0     0
SMALL
abcg2


@<TRIPOS>ATOM
      1 C4          -2.8960    -0.1000     1.4420 c3         1 2WW      -0.073100
      2 C5          -3.5860     0.7240    -0.8210 c3         1 2WW      -0.073100
      3 C3          -0.0460    -0.5080     0.2890 c3         1 2WW      -0.169500
      4 P11          1.6420     0.2030    -0.0590 p5         1 2WW       1.273500
      5 O12          2.6060    -0.7220     0.7070 o          1 2WW      -0.929500
      6 O13          1.8100     0.1220    -1.5870 o          1 2WW      -0.929500
      7 N12         -0.1520    -1.9190    -0.1170 n8         1 2WW      -1.009200
      8 C1          -1.1600     0.3010    -0.3580 c3         1 2WW      -0.030400
      9 C2          -2.5920    -0.1420    -0.0510 c3         1 2WW      -0.063700
     10 H1          -2.7210     0.9020     1.8460 hc         1 2WW       0.008700
     11 H2          -3.9370    -0.3600     1.6430 hc         1 2WW       0.008700
     12 H3          -2.2710    -0.7960     2.0030 hc         1 2WW       0.008700
     13 H4          -3.4980     1.7740    -0.5270 hc         1 2WW       0.008700
     14 H5          -3.4110     0.6700    -1.8980 hc         1 2WW       0.008700
     15 H6          -4.6180     0.4180    -0.6380 hc         1 2WW       0.008700
     16 H7          -0.1910    -0.4790     1.3780 h1         1 2WW       0.021700
     17 H10          0.0370    -1.9490    -1.1150 hn         1 2WW       0.370500
     18 H11          0.6410    -2.4030     0.2910 hn         1 2WW       0.370500
     19 H13         -1.0410     1.3460    -0.0520 hc         1 2WW       0.038700
     20 H14         -1.0090     0.2920    -1.4450 hc         1 2WW       0.038700
     21 H15         -2.7110    -1.1770    -0.3900 hc         1 2WW       0.040700
     22 O11          1.6170     1.6410     0.4830 o          1 2WW      -0.929500
@<TRIPOS>BOND
     1     1     9 1   
     2     1    10 1   
     3     1    11 1   
     4     1    12 1   
     5     2     9 1   
     6     2    13 1   
     7     2    14 1   
     8     2    15 1   
     9     3     4 1   
    10     3     7 1   
    11     3     8 1   
    12     3    16 1   
    13     4     5 1   
    14     4     6 1   
    15     4    22 1   
    16     7    17 1   
    17     7    18 1   
    18     8     9 1   
    19     8    19 1   
    20     8    20 1   
    21     9    21 1   
@<TRIPOS>SUBSTRUCTURE
     1 2WW         1 TEMP              0 ****  ****    0 ROOT
