@<TRIPOS>MOLECULE
2WW
   22    21     1     0     0
SMALL
No Charge or Current Charge


@<TRIPOS>ATOM
      1 C4          -2.9050     0.0130     1.4890 c3         1 2WW      -0.073100
      2 C5          -3.6340     0.7100    -0.8460 c3         1 2WW      -0.073100
      3 C3          -0.0200    -0.6150     0.2170 c3         1 2WW      -0.169500
      4 P11          1.6720     0.2830     0.0140 p5         1 2WW       1.273500
      5 O12          2.7430    -0.5960     0.5710 o          1 2WW      -0.929500
      6 O13          1.9300     0.5260    -1.4360 o          1 2WW      -0.929500
      7 N12         -0.1710    -2.0710    -0.1980 n8         1 2WW      -1.009200
      8 C1          -1.1550     0.2570    -0.4070 c3         1 2WW      -0.030400
      9 C2          -2.6200    -0.1230    -0.0270 c3         1 2WW      -0.063700
     10 H1          -2.7130     1.0370     1.8330 hc         1 2WW       0.008700
     11 H2          -3.9520    -0.2300     1.7080 hc         1 2WW       0.008700
     12 H3          -2.2800    -0.6710     2.0740 hc         1 2WW       0.008700
     13 H4          -3.5350     1.7790    -0.6200 hc         1 2WW       0.008700
     14 H5          -3.4750     0.5690    -1.9210 hc         1 2WW       0.008700
     15 H6          -4.6620     0.4050    -0.6160 hc         1 2WW       0.008700
     16 H7          -0.1500    -0.5950     1.3060 h1         1 2WW       0.021700
     17 H10          0.0410    -2.1560    -1.2000 hn         1 2WW       0.370500
     18 H11          0.5800    -2.6190     0.2430 hn         1 2WW       0.370500
     19 H13         -0.9950     1.3030    -0.1190 hc         1 2WW       0.038700
     20 H14         -1.0520     0.2290    -1.4990 hc         1 2WW       0.038700
     21 H15         -2.7840    -1.1720    -0.2990 hc         1 2WW       0.040700
     22 O11          1.6490     1.5780     0.7560 o          1 2WW      -0.929500
@<TRIPOS>BOND
     1     1     9 1   
     2     1    10 1   
     3     1    11 1   
     4     1    12 1   
     5     2     9 1   
     6     2    13 1   
     7     2    14 1   
     8     2    15 1   
     9     3     4 1   
    10     3     7 1   
    11     3     8 1   
    12     3    16 1   
    13     4     5 1   
    14     4     6 1   
    15     4    22 1   
    16     7    17 1   
    17     7    18 1   
    18     8     9 1   
    19     8    19 1   
    20     8    20 1   
    21     9    21 1   
@<TRIPOS>SUBSTRUCTURE
     1 2WW         1 TEMP              0 ****  ****    0 ROOT
