@<TRIPOS>MOLECULE
2WX
   52    56     1     0     0
SMALL
bcc


@<TRIPOS>ATOM
      1 C18          3.5610    -0.0040     1.2140 cc         1 2WX      -0.084200
      2 C20          4.8310     0.1700     0.5750 ca         1 2WX      -0.077800
      3 C21          6.1090     0.2130     1.1450 ca         1 2WX      -0.084000
      4 C22          7.2080     0.3870     0.3290 ca         1 2WX      -0.133000
      5 C23          7.0580     0.5230    -1.0580 ca         1 2WX      -0.115000
      6 C24          5.8070     0.4850    -1.6440 ca         1 2WX      -0.102000
      7 C19          4.7010     0.3070    -0.8180 ca         1 2WX      -0.023100
      8 S2           3.0390     0.2400    -1.3050 ss         1 2WX      -0.083500
      9 C3           2.5280     0.0040     0.3430 cd         1 2WX      -0.060600
     10 C1           1.0770    -0.2200     0.6560 c3         1 2WX       0.345000
     11 C2           0.2030     0.7530    -0.1140 ca         1 2WX      -0.116300
     12 C4          -0.3590     0.4050    -1.3390 ca         1 2WX      -0.108000
     13 C5          -1.1260     1.3030    -2.0630 ca         1 2WX      -0.125000
     14 C6          -1.3430     2.5800    -1.5690 ca         1 2WX      -0.119000
     15 C7          -0.7900     2.9560    -0.3550 ca         1 2WX      -0.123000
     16 C8          -0.0250     2.0440     0.3550 ca         1 2WX       0.050400
     17 CL1          0.6580     2.5530     1.8680 cl         1 2WX      -0.095400
     18 N1           0.7710    -1.6260     0.4380 n7         1 2WX      -0.836100
     19 S1          -0.4800    -2.3630     1.2190 sy         1 2WX       1.314200
     20 O1          -0.3860    -3.7650     0.8570 o          1 2WX      -0.601800
     21 O2          -0.3990    -1.9490     2.6100 o          1 2WX      -0.601800
     22 C9          -1.9820    -1.7160     0.5500 ca         1 2WX      -0.308500
     23 C10         -2.5990    -0.6440     1.1760 ca         1 2WX      -0.027000
     24 C13         -3.7360    -0.0790     0.6180 ca         1 2WX       0.057100
     25 O4          -4.3650     0.8970     1.3100 os         1 2WX      -0.321900
     26 C16         -4.5050     2.1700     0.6790 c3         1 2WX       0.138400
     27 C17         -5.6120     2.1970    -0.3510 c3         1 2WX      -0.145400
     28 C15         -5.3640     1.2810    -1.5300 c3         1 2WX       0.144400
     29 O3          -5.3530    -0.1020    -1.1700 os         1 2WX      -0.328900
     30 C14         -4.2330    -0.5850    -0.5920 ca         1 2WX       0.135100
     31 C11         -3.5980    -1.6630    -1.2000 ca         1 2WX      -0.158000
     32 C12         -2.4770    -2.2420    -0.6340 ca         1 2WX      -0.036000
     33 H1           3.4350    -0.1320     2.2800 ha         1 2WX       0.163000
     34 H2           6.2280     0.1090     2.2160 ha         1 2WX       0.137000
     35 H3           8.1990     0.4200     0.7620 ha         1 2WX       0.133000
     36 H4           7.9320     0.6600    -1.6800 ha         1 2WX       0.132000
     37 H5           5.6940     0.5890    -2.7150 ha         1 2WX       0.139000
     38 H6           0.9610    -0.0400     1.7260 h1         1 2WX       0.109700
     39 H7          -0.2050    -0.5890    -1.7370 ha         1 2WX       0.132000
     40 H8          -1.5530     1.0020    -3.0100 ha         1 2WX       0.139000
     41 H9          -1.9440     3.2900    -2.1230 ha         1 2WX       0.136000
     42 H10         -0.9550     3.9500     0.0380 ha         1 2WX       0.151000
     43 H11          0.9770    -2.0160    -0.4740 hn         1 2WX       0.438800
     44 H12         -2.2300    -0.2450     2.1120 ha         1 2WX       0.171000
     45 H13         -4.7240     2.8690     1.4850 h1         1 2WX       0.055200
     46 H14         -3.5500     2.4650     0.2320 h1         1 2WX       0.055200
     47 H15         -6.5710     1.9570     0.1160 hc         1 2WX       0.065700
     48 H16         -5.6930     3.2180    -0.7330 hc         1 2WX       0.065700
     49 H17         -6.1660     1.3820    -2.2600 h1         1 2WX       0.053700
     50 H18         -4.4230     1.5400    -2.0290 h1         1 2WX       0.053700
     51 H19         -4.0030    -2.0530    -2.1240 ha         1 2WX       0.148000
     52 H20         -2.0020    -3.0800    -1.1260 ha         1 2WX       0.153000
@<TRIPOS>BOND
     1     1     2 1   
     2     1     9 2   
     3     1    33 1   
     4     2     3 ar  
     5     2     7 ar  
     6     3     4 ar  
     7     3    34 1   
     8     4     5 ar  
     9     4    35 1   
    10     5     6 ar  
    11     5    36 1   
    12     6     7 ar  
    13     6    37 1   
    14     7     8 1   
    15     8     9 1   
    16     9    10 1   
    17    10    11 1   
    18    10    18 1   
    19    10    38 1   
    20    11    12 ar  
    21    11    16 ar  
    22    12    13 ar  
    23    12    39 1   
    24    13    14 ar  
    25    13    40 1   
    26    14    15 ar  
    27    14    41 1   
    28    15    16 ar  
    29    15    42 1   
    30    16    17 1   
    31    18    19 1   
    32    18    43 1   
    33    19    20 2   
    34    19    21 2   
    35    19    22 1   
    36    22    23 ar  
    37    22    32 ar  
    38    23    24 ar  
    39    23    44 1   
    40    24    25 1   
    41    24    30 ar  
    42    25    26 1   
    43    26    27 1   
    44    26    45 1   
    45    26    46 1   
    46    27    28 1   
    47    27    47 1   
    48    27    48 1   
    49    28    29 1   
    50    28    49 1   
    51    28    50 1   
    52    29    30 1   
    53    30    31 ar  
    54    31    32 ar  
    55    31    51 1   
    56    32    52 1   
@<TRIPOS>SUBSTRUCTURE
     1 2WX         1 TEMP              0 ****  ****    0 ROOT
