@<TRIPOS>MOLECULE
2WX
   52    56     1     0     0
SMALL
No Charge or Current Charge


@<TRIPOS>ATOM
      1 C18          3.5940     0.4650     0.9590 cc         1 2WX      -0.134200
      2 C20          4.8460     0.4130     0.2430 ca         1 2WX      -0.077800
      3 C21          6.0060     1.1440     0.5470 ca         1 2WX      -0.066000
      4 C22          7.1480     0.9730    -0.2610 ca         1 2WX      -0.115000
      5 C23          7.1170     0.0810    -1.3550 ca         1 2WX      -0.097000
      6 C24          5.9430    -0.6440    -1.6450 ca         1 2WX      -0.084000
      7 C19          4.8180    -0.4590    -0.8280 ca         1 2WX      -0.150000
      8 S2           3.2530    -1.2730    -1.0270 ss         1 2WX       0.043400
      9 C3           2.6440    -0.3810     0.4060 cd         1 2WX      -0.060600
     10 C1           1.2220    -0.5540     0.8930 c3         1 2WX       0.345000
     11 C2           0.3130     0.5390     0.3150 ca         1 2WX      -0.116300
     12 C4           0.0430     0.5580    -1.0750 ca         1 2WX      -0.090000
     13 C5          -0.7760     1.5510    -1.6360 ca         1 2WX      -0.107000
     14 C6          -1.3250     2.5520    -0.8220 ca         1 2WX      -0.101000
     15 C7          -1.0540     2.5560     0.5550 ca         1 2WX      -0.105000
     16 C8          -0.2410     1.5610     1.1250 ca         1 2WX       0.142000
     17 Cl1          0.0600     1.6460     2.8610 cl         1 2WX      -0.187000
     18 N1           0.7120    -1.8980     0.5760 n7         1 2WX      -0.891300
     19 S1          -0.6370    -2.4630     1.3770 sy         1 2WX       1.172600
     20 O1          -0.6540    -3.9000     1.1020 o          1 2WX      -0.531000
     21 O2          -0.5660    -1.9400     2.7430 o          1 2WX      -0.531000
     22 C9          -1.9530    -1.6460     0.4680 ca         1 2WX      -0.308500
     23 C10         -2.7150    -0.6300     1.0820 ca         1 2WX      -0.009000
     24 C13         -3.7350     0.0360     0.3790 ca         1 2WX       0.057100
     25 O4          -4.4780     0.9550     1.0940 os         1 2WX      -0.345100
     26 C16         -4.8030     2.2580     0.5900 c3         1 2WX       0.161600
     27 C17         -5.8390     2.1370    -0.5320 c3         1 2WX      -0.145400
     28 C15         -5.2440     1.6040    -1.8390 c3         1 2WX       0.167600
     29 O3          -5.0300     0.1920    -1.7250 os         1 2WX      -0.352100
     30 C14         -4.0080    -0.3400    -0.9670 ca         1 2WX       0.135100
     31 C11         -3.2680    -1.3780    -1.5590 ca         1 2WX      -0.140000
     32 C12         -2.2440    -2.0290    -0.8550 ca         1 2WX      -0.018000
     33 H1           3.4020     1.0950     1.8250 ha         1 2WX       0.213000
     34 H2           6.0240     1.8300     1.3910 ha         1 2WX       0.119000
     35 H3           8.0550     1.5300    -0.0410 ha         1 2WX       0.115000
     36 H4           8.0000    -0.0480    -1.9770 ha         1 2WX       0.114000
     37 H5           5.9110    -1.3330    -2.4870 ha         1 2WX       0.121000
     38 H6           1.2880    -0.4480     1.9840 h1         1 2WX       0.109700
     39 H7           0.4700    -0.1960    -1.7320 ha         1 2WX       0.114000
     40 H8          -0.9790     1.5480    -2.7040 ha         1 2WX       0.121000
     41 H9          -1.9530     3.3260    -1.2580 ha         1 2WX       0.118000
     42 H10         -1.4730     3.3350     1.1870 ha         1 2WX       0.133000
     43 H11          0.3770    -1.8770    -0.3800 hn         1 2WX       0.494000
     44 H12         -2.5230    -0.3440     2.1150 ha         1 2WX       0.153000
     45 H13         -5.2360     2.8620     1.3980 h1         1 2WX       0.055200
     46 H14         -3.9080     2.7800     0.2310 h1         1 2WX       0.055200
     47 H15         -6.6790     1.5090    -0.2100 hc         1 2WX       0.065700
     48 H16         -6.2490     3.1360    -0.7260 hc         1 2WX       0.065700
     49 H17         -5.9570     1.7990    -2.6500 h1         1 2WX       0.053700
     50 H18         -4.3100     2.1280    -2.0830 h1         1 2WX       0.053700
     51 H19         -3.4960    -1.6830    -2.5770 ha         1 2WX       0.130000
     52 H20         -1.6880    -2.8320    -1.3390 ha         1 2WX       0.135000
@<TRIPOS>BOND
     1     1     2 1   
     2     1     9 2   
     3     1    33 1   
     4     2     3 ar  
     5     2     7 ar  
     6     3     4 ar  
     7     3    34 1   
     8     4     5 ar  
     9     4    35 1   
    10     5     6 ar  
    11     5    36 1   
    12     6     7 ar  
    13     6    37 1   
    14     7     8 1   
    15     8     9 1   
    16     9    10 1   
    17    10    11 1   
    18    10    18 1   
    19    10    38 1   
    20    11    12 ar  
    21    11    16 ar  
    22    12    13 ar  
    23    12    39 1   
    24    13    14 ar  
    25    13    40 1   
    26    14    15 ar  
    27    14    41 1   
    28    15    16 ar  
    29    15    42 1   
    30    16    17 1   
    31    18    19 1   
    32    18    43 1   
    33    19    20 2   
    34    19    21 2   
    35    19    22 1   
    36    22    23 ar  
    37    22    32 ar  
    38    23    24 ar  
    39    23    44 1   
    40    24    25 1   
    41    24    30 ar  
    42    25    26 1   
    43    26    27 1   
    44    26    45 1   
    45    26    46 1   
    46    27    28 1   
    47    27    47 1   
    48    27    48 1   
    49    28    29 1   
    50    28    49 1   
    51    28    50 1   
    52    29    30 1   
    53    30    31 ar  
    54    31    32 ar  
    55    31    51 1   
    56    32    52 1   
@<TRIPOS>SUBSTRUCTURE
     1 2WX         1 TEMP              0 ****  ****    0 ROOT
