@<TRIPOS>MOLECULE
2WY
   52    56     1     0     0
SMALL
abcg2


@<TRIPOS>ATOM
      1 C7          -4.0060    -0.3360    -1.1870 cc         1 2WY      -0.204200
      2 C1          -4.9480     0.2090    -0.2490 ca         1 2WY      -0.113800
      3 C6          -6.3290     0.4020    -0.2240 ca         1 2WY      -0.056000
      4 C5          -6.8880     0.9810     0.9030 ca         1 2WY      -0.131000
      5 C4          -6.0970     1.3660     1.9920 ca         1 2WY      -0.088000
      6 C3          -4.7230     1.1830     1.9890 ca         1 2WY      -0.107000
      7 C2          -4.1860     0.6020     0.8540 ca         1 2WY       0.065100
      8 O1          -2.8790     0.3320     0.6330 os         1 2WY      -0.179200
      9 C8          -2.7960    -0.2340    -0.6020 cd         1 2WY       0.021900
     10 C9          -1.4320    -0.6000    -1.0770 c3         1 2WY       0.346000
     11 C10         -0.5350     0.6220    -1.1730 ca         1 2WY      -0.133300
     12 C11          0.0930     1.1560    -0.0530 ca         1 2WY      -0.084000
     13 C12          0.9170     2.2630    -0.1760 ca         1 2WY      -0.112000
     14 C13          1.1190     2.8530    -1.4170 ca         1 2WY      -0.096000
     15 C14          0.4860     2.3320    -2.5360 ca         1 2WY      -0.112000
     16 C15         -0.3360     1.2200    -2.4120 ca         1 2WY      -0.084000
     17 N1          -0.9190    -1.6790    -0.2330 n7         1 2WY      -0.876300
     18 S1           0.3800    -2.5790    -0.7100 sy         1 2WY       1.165600
     19 O4           0.4910    -3.6420     0.2740 o          1 2WY      -0.531500
     20 O5           0.1690    -2.8880    -2.1140 o          1 2WY      -0.531500
     21 C16          1.8170    -1.5590    -0.5840 ca         1 2WY      -0.308500
     22 C17          2.3960    -1.3730     0.6630 ca         1 2WY      -0.025000
     23 C18          3.4670    -0.5030     0.8030 ca         1 2WY       0.053100
     24 O2           4.0530    -0.4020     2.0180 os         1 2WY      -0.345100
     25 C23          4.0510     0.8840     2.6350 c3         1 2WY       0.162600
     26 C22          5.1090     1.8070     2.0700 c3         1 2WY      -0.146400
     27 C24          4.8920     2.1580     0.6150 c3         1 2WY       0.167600
     28 O3           4.9980     1.0300    -0.2550 os         1 2WY      -0.351100
     29 C19          3.9400     0.1940    -0.3200 ca         1 2WY       0.136100
     30 C21          3.3460    -0.0140    -1.5580 ca         1 2WY      -0.134000
     31 C20          2.2880    -0.8930    -1.7040 ca         1 2WY       0.002000
     32 H1          -4.2080    -0.7470    -2.1640 ha         1 2WY       0.218000
     33 H2          -6.9480     0.1070    -1.0610 ha         1 2WY       0.121000
     34 H3          -7.9580     1.1410     0.9460 ha         1 2WY       0.116000
     35 H4          -6.5660     1.8170     2.8560 ha         1 2WY       0.116000
     36 H5          -4.1070     1.4800     2.8270 ha         1 2WY       0.129000
     37 H6          -1.5660    -1.0130    -2.0790 h1         1 2WY       0.102700
     38 H7          -0.0360     0.7070     0.9240 ha         1 2WY       0.117000
     39 H8           1.4030     2.6670     0.7030 ha         1 2WY       0.114000
     40 H9           1.7680     3.7140    -1.5100 ha         1 2WY       0.114000
     41 H10          0.6390     2.7820    -3.5080 ha         1 2WY       0.114000
     42 H11         -0.8150     0.8050    -3.2910 ha         1 2WY       0.117000
     43 H12         -0.9400    -1.5150     0.7670 hn         1 2WY       0.493000
     44 H13          2.0380    -1.9010     1.5380 ha         1 2WY       0.143000
     45 H14          3.0560     1.3370     2.5500 h1         1 2WY       0.052700
     46 H15          4.2410     0.7010     3.6920 h1         1 2WY       0.052700
     47 H16          5.0890     2.7360     2.6470 hc         1 2WY       0.065700
     48 H17          6.1030     1.3730     2.2100 hc         1 2WY       0.065700
     49 H18          3.9170     2.6400     0.4760 h1         1 2WY       0.053700
     50 H19          5.6570     2.8560     0.2780 h1         1 2WY       0.053700
     51 H20          3.7250     0.5220    -2.4170 ha         1 2WY       0.131000
     52 H21          1.8380    -1.0340    -2.6750 ha         1 2WY       0.142000
@<TRIPOS>BOND
     1     1     2 1   
     2     1     9 2   
     3     1    32 1   
     4     2     3 ar  
     5     2     7 ar  
     6     3     4 ar  
     7     3    33 1   
     8     4     5 ar  
     9     4    34 1   
    10     5     6 ar  
    11     5    35 1   
    12     6     7 ar  
    13     6    36 1   
    14     7     8 1   
    15     8     9 1   
    16     9    10 1   
    17    10    11 1   
    18    10    17 1   
    19    10    37 1   
    20    11    12 ar  
    21    11    16 ar  
    22    12    13 ar  
    23    12    38 1   
    24    13    14 ar  
    25    13    39 1   
    26    14    15 ar  
    27    14    40 1   
    28    15    16 ar  
    29    15    41 1   
    30    16    42 1   
    31    17    18 1   
    32    17    43 1   
    33    18    19 2   
    34    18    20 2   
    35    18    21 1   
    36    21    22 ar  
    37    21    31 ar  
    38    22    23 ar  
    39    22    44 1   
    40    23    24 1   
    41    23    29 ar  
    42    24    25 1   
    43    25    26 1   
    44    25    45 1   
    45    25    46 1   
    46    26    27 1   
    47    26    47 1   
    48    26    48 1   
    49    27    28 1   
    50    27    49 1   
    51    27    50 1   
    52    28    29 1   
    53    29    30 ar  
    54    30    31 ar  
    55    30    51 1   
    56    31    52 1   
@<TRIPOS>SUBSTRUCTURE
     1 2WY         1 TEMP              0 ****  ****    0 ROOT
