@<TRIPOS>MOLECULE
2WY
   52    56     1     0     0
SMALL
No Charge or Current Charge


@<TRIPOS>ATOM
      1 C7          -4.1060    -0.1450    -1.0980 cc         1 2WY      -0.204200
      2 C1          -4.8870     0.3510     0.0170 ca         1 2WY      -0.113800
      3 C6          -6.2430     0.6870     0.1120 ca         1 2WY      -0.056000
      4 C5          -6.7170     1.1530     1.3600 ca         1 2WY      -0.131000
      5 C4          -5.8400     1.2730     2.4690 ca         1 2WY      -0.088000
      6 C3          -4.4760     0.9270     2.3440 ca         1 2WY      -0.107000
      7 C2          -4.0420     0.4690     1.0960 ca         1 2WY       0.065100
      8 O1          -2.7900     0.0810     0.7310 os         1 2WY      -0.179200
      9 C8          -2.8190    -0.2930    -0.5950 cd         1 2WY       0.021900
     10 C9          -1.5480    -0.7570    -1.2810 c3         1 2WY       0.346000
     11 C10         -0.6920     0.4270    -1.7430 ca         1 2WY      -0.133300
     12 C11         -0.1700     1.3530    -0.8110 ca         1 2WY      -0.084000
     13 C12          0.6250     2.4280    -1.2450 ca         1 2WY      -0.112000
     14 C13          0.8990     2.5940    -2.6120 ca         1 2WY      -0.096000
     15 C14          0.3750     1.6860    -3.5460 ca         1 2WY      -0.112000
     16 C15         -0.4180     0.6090    -3.1150 ca         1 2WY      -0.084000
     17 N1          -0.7790    -1.6500    -0.4010 n7         1 2WY      -0.876300
     18 S1           0.5100    -2.5000    -1.0300 sy         1 2WY       1.165600
     19 O4           0.5920    -3.7180    -0.2210 o          1 2WY      -0.531500
     20 O5           0.3310    -2.5430    -2.4840 o          1 2WY      -0.531500
     21 C16          1.8520    -1.3830    -0.6100 ca         1 2WY      -0.308500
     22 C17          2.2920    -1.2780     0.7260 ca         1 2WY      -0.025000
     23 C18          3.3080    -0.3720     1.0800 ca         1 2WY       0.053100
     24 O2           3.7020    -0.3680     2.4020 os         1 2WY      -0.345100
     25 C23          3.8420     0.8450     3.1560 c3         1 2WY       0.162600
     26 C22          5.1010     1.5920     2.6990 c3         1 2WY      -0.146400
     27 C24          4.9350     2.2710     1.3350 c3         1 2WY       0.167600
     28 O3           4.9720     1.2810     0.2980 os         1 2WY      -0.351100
     29 C19          3.9190     0.4210     0.0680 ca         1 2WY       0.136100
     30 C21          3.5020     0.2800    -1.2660 ca         1 2WY      -0.134000
     31 C20          2.4690    -0.6050    -1.6090 ca         1 2WY       0.002000
     32 H1          -4.4330    -0.3540    -2.1150 ha         1 2WY       0.218000
     33 H2          -6.9080     0.5930    -0.7440 ha         1 2WY       0.121000
     34 H3          -7.7650     1.4230     1.4700 ha         1 2WY       0.116000
     35 H4          -6.2210     1.6340     3.4220 ha         1 2WY       0.116000
     36 H5          -3.7890     1.0120     3.1820 ha         1 2WY       0.129000
     37 H6          -1.8820    -1.3130    -2.1700 h1         1 2WY       0.102700
     38 H7          -0.3730     1.2430     0.2510 ha         1 2WY       0.117000
     39 H8           1.0280     3.1320    -0.5210 ha         1 2WY       0.114000
     40 H9           1.5150     3.4260    -2.9470 ha         1 2WY       0.114000
     41 H10          0.5850     1.8160    -4.6060 ha         1 2WY       0.114000
     42 H11         -0.8120    -0.0890    -3.8510 ha         1 2WY       0.117000
     43 H12         -0.3110    -1.0550     0.2740 hn         1 2WY       0.493000
     44 H13          1.8430    -1.8950     1.5030 ha         1 2WY       0.143000
     45 H14          2.9540     1.4820     3.0490 h1         1 2WY       0.052700
     46 H15          3.9510     0.6010     4.2200 h1         1 2WY       0.052700
     47 H16          5.3240     2.3680     3.4410 hc         1 2WY       0.065700
     48 H17          5.9620     0.9130     2.6850 hc         1 2WY       0.065700
     49 H18          4.0010     2.8470     1.3000 h1         1 2WY       0.053700
     50 H19          5.7660     2.9740     1.1950 h1         1 2WY       0.053700
     51 H20          3.9790     0.8720    -2.0420 ha         1 2WY       0.131000
     52 H21          2.1550    -0.6790    -2.6490 ha         1 2WY       0.142000
@<TRIPOS>BOND
     1     1     2 1   
     2     1     9 2   
     3     1    32 1   
     4     2     3 ar  
     5     2     7 ar  
     6     3     4 ar  
     7     3    33 1   
     8     4     5 ar  
     9     4    34 1   
    10     5     6 ar  
    11     5    35 1   
    12     6     7 ar  
    13     6    36 1   
    14     7     8 1   
    15     8     9 1   
    16     9    10 1   
    17    10    11 1   
    18    10    17 1   
    19    10    37 1   
    20    11    12 ar  
    21    11    16 ar  
    22    12    13 ar  
    23    12    38 1   
    24    13    14 ar  
    25    13    39 1   
    26    14    15 ar  
    27    14    40 1   
    28    15    16 ar  
    29    15    41 1   
    30    16    42 1   
    31    17    18 1   
    32    17    43 1   
    33    18    19 2   
    34    18    20 2   
    35    18    21 1   
    36    21    22 ar  
    37    21    31 ar  
    38    22    23 ar  
    39    22    44 1   
    40    23    24 1   
    41    23    29 ar  
    42    24    25 1   
    43    25    26 1   
    44    25    45 1   
    45    25    46 1   
    46    26    27 1   
    47    26    47 1   
    48    26    48 1   
    49    27    28 1   
    50    27    49 1   
    51    27    50 1   
    52    28    29 1   
    53    29    30 ar  
    54    30    31 ar  
    55    30    51 1   
    56    31    52 1   
@<TRIPOS>SUBSTRUCTURE
     1 2WY         1 TEMP              0 ****  ****    0 ROOT
