@<TRIPOS>MOLECULE
2WZ
   60    64     1     0     0
SMALL
No Charge or Current Charge


@<TRIPOS>ATOM
      1 Cl1         43.6400   -21.2640   -17.1190 cl         1 2WZ      -0.180000
      2 C4          44.2240   -20.0760   -15.9440 ca         1 2WZ       0.037000
      3 C5          45.2340   -19.1740   -16.3470 ca         1 2WZ       0.389900
      4 N2          45.7430   -18.2060   -15.5470 nb         1 2WZ      -0.719000
      5 C6          45.2390   -18.1280   -14.3210 ca         1 2WZ       0.580900
      6 N4          45.8230   -17.1170   -13.6510 nv         1 2WZ      -1.045900
      7 C7          44.2230   -18.9700   -13.8020 ca         1 2WZ       0.070000
      8 F1          43.7640   -18.7690   -12.5390 f          1 2WZ      -0.179000
      9 C2          43.6970   -19.9960   -14.6290 ca         1 2WZ      -0.034300
     10 C1          42.5900   -20.9570   -14.1610 c3         1 2WZ       0.356000
     11 N1          42.8030   -21.3960   -12.7770 n7         1 2WZ      -0.900300
     12 S2          42.0100   -22.7260   -12.1890 s6         1 2WZ       1.285100
     13 O2          43.0210   -23.6020   -11.5960 o          1 2WZ      -0.539500
     14 O3          41.0930   -23.2060   -13.2230 o          1 2WZ      -0.539500
     15 C23         41.0260   -21.9320   -10.8570 cx         1 2WZ      -0.470700
     16 C24         39.7300   -22.5590   -10.3810 cx         1 2WZ      -0.057900
     17 C25         39.6990   -21.2590   -11.1560 cx         1 2WZ      -0.057900
     18 C3          41.2260   -20.3320   -14.3240 cc         1 2WZ      -0.117600
     19 C10         40.6950   -19.2210   -13.6820 cd         1 2WZ      -0.162200
     20 S1          40.0720   -20.9950   -15.5230 ss         1 2WZ       0.166400
     21 C8          38.8910   -19.7460   -15.0320 ca         1 2WZ      -0.127000
     22 C9          39.3530   -18.8740   -14.0780 ca         1 2WZ      -0.087800
     23 C14         38.5620   -17.8140   -13.6220 ca         1 2WZ      -0.058000
     24 C13         37.2780   -17.6570   -14.1810 ca         1 2WZ      -0.122000
     25 C12         36.8110   -18.5520   -15.1720 ca         1 2WZ      -0.080000
     26 C11         37.6060   -19.6410   -15.6300 cp         1 2WZ      -0.119500
     27 C15         37.0780   -20.5690   -16.6870 cp         1 2WZ       0.409500
     28 C19         36.4230   -20.0620   -17.8350 ca         1 2WZ      -0.141000
     29 N3          37.2020   -21.8990   -16.4810 nb         1 2WZ      -0.685000
     30 C16         36.7070   -22.7470   -17.4060 ca         1 2WZ       0.348900
     31 C17         36.0570   -22.3150   -18.5730 ca         1 2WZ      -0.158000
     32 C18         35.8970   -20.9320   -18.8130 ca         1 2WZ      -0.066300
     33 C20         35.2020   -20.3590   -20.0680 c3         1 2WZ       0.221300
     34 C21         36.2270   -19.6030   -20.9430 c3         1 2WZ      -0.097600
     35 C22         34.4660   -21.4240   -20.9170 c3         1 2WZ      -0.097600
     36 O1          34.2170   -19.4140   -19.6480 oh         1 2WZ      -0.659000
     37 H1          45.6450   -19.2270   -17.3550 h4         1 2WZ       0.039100
     38 H2          46.3370   -16.4560   -14.2230 hn         1 2WZ       0.484500
     39 H3          45.3410   -16.7440   -12.8400 hn         1 2WZ       0.484500
     40 H4          42.6310   -21.8450   -14.8070 h1         1 2WZ       0.100700
     41 H5          42.4400   -20.6800   -12.1570 hn         1 2WZ       0.503000
     42 H6          41.6990   -21.5040   -10.1170 h1         1 2WZ       0.120700
     43 H7          39.5020   -22.5180    -9.3180 hc         1 2WZ       0.086700
     44 H8          39.3680   -23.4530   -10.8860 hc         1 2WZ       0.086700
     45 H9          39.4510   -20.3510   -10.6100 hc         1 2WZ       0.086700
     46 H10         39.3060   -21.2960   -12.1700 hc         1 2WZ       0.086700
     47 H11         41.2400   -18.6510   -12.9360 ha         1 2WZ       0.193000
     48 H12         38.9300   -17.1250   -12.8650 ha         1 2WZ       0.118000
     49 H13         36.6420   -16.8390   -13.8490 ha         1 2WZ       0.118000
     50 H14         35.8130   -18.4060   -15.5810 ha         1 2WZ       0.114000
     51 H15         36.3370   -18.9860   -17.9580 ha         1 2WZ       0.133000
     52 H16         36.8340   -23.8110   -17.2050 h4         1 2WZ       0.024100
     53 H17         35.6940   -23.0660   -19.2660 ha         1 2WZ       0.125000
     54 H18         36.6960   -18.7830   -20.3880 hc         1 2WZ       0.048033
     55 H19         37.0200   -20.2830   -21.2780 hc         1 2WZ       0.048033
     56 H20         35.7460   -19.1770   -21.8310 hc         1 2WZ       0.048033
     57 H21         33.7380   -21.9780   -20.3120 hc         1 2WZ       0.048033
     58 H22         33.9250   -20.9540   -21.7470 hc         1 2WZ       0.048033
     59 H23         35.1760   -22.1400   -21.3490 hc         1 2WZ       0.048033
     60 H24         33.6480   -19.8770   -18.9960 ho         1 2WZ       0.442000
@<TRIPOS>BOND
     1     1     2 1   
     2     2     3 ar  
     3     2     9 ar  
     4     3     4 ar  
     5     3    37 1   
     6     4     5 ar  
     7     5     6 1   
     8     5     7 ar  
     9     6    38 1   
    10     6    39 1   
    11     7     8 1   
    12     7     9 ar  
    13     9    10 1   
    14    10    11 1   
    15    10    18 1   
    16    10    40 1   
    17    11    12 1   
    18    11    41 1   
    19    12    13 2   
    20    12    14 2   
    21    12    15 1   
    22    15    16 1   
    23    15    17 1   
    24    15    42 1   
    25    16    17 1   
    26    16    43 1   
    27    16    44 1   
    28    17    45 1   
    29    17    46 1   
    30    18    19 2   
    31    18    20 1   
    32    19    22 1   
    33    19    47 1   
    34    20    21 1   
    35    21    22 ar  
    36    21    26 ar  
    37    22    23 ar  
    38    23    24 ar  
    39    23    48 1   
    40    24    25 ar  
    41    24    49 1   
    42    25    26 ar  
    43    25    50 1   
    44    26    27 1   
    45    27    28 ar  
    46    27    29 ar  
    47    28    32 ar  
    48    28    51 1   
    49    29    30 ar  
    50    30    31 ar  
    51    30    52 1   
    52    31    32 ar  
    53    31    53 1   
    54    32    33 1   
    55    33    34 1   
    56    33    35 1   
    57    33    36 1   
    58    34    54 1   
    59    34    55 1   
    60    34    56 1   
    61    35    57 1   
    62    35    58 1   
    63    35    59 1   
    64    36    60 1   
@<TRIPOS>SUBSTRUCTURE
     1 2WZ         1 TEMP              0 ****  ****    0 ROOT
