@<TRIPOS>MOLECULE
2WZ
   60    64     1     0     0
SMALL
abcg2


@<TRIPOS>ATOM
      1 CL1         43.1870   -23.1630   -15.4270 cl         1 2WZ      -0.180000
      2 C4          43.6930   -21.4900   -15.4530 ca         1 2WZ       0.037000
      3 C5          44.5720   -21.0700   -16.4350 ca         1 2WZ       0.389900
      4 N2          44.9950   -19.8100   -16.5400 nb         1 2WZ      -0.719000
      5 C6          44.5620   -18.8980   -15.6660 ca         1 2WZ       0.580900
      6 N4          45.0310   -17.6200   -15.7510 nv         1 2WZ      -1.045900
      7 C7          43.6690   -19.2790   -14.6530 ca         1 2WZ       0.070000
      8 F1          43.2400   -18.3220   -13.7930 f          1 2WZ      -0.179000
      9 C2          43.2120   -20.5680   -14.5120 ca         1 2WZ      -0.034300
     10 C1          42.2190   -20.9300   -13.4190 c3         1 2WZ       0.356000
     11 N1          42.7440   -20.5660   -12.1070 n7         1 2WZ      -0.900300
     12 S2          42.6890   -21.6180   -10.8540 s6         1 2WZ       1.285100
     13 O2          43.3820   -20.9590    -9.7720 o          1 2WZ      -0.539500
     14 O3          43.1750   -22.8870   -11.3460 o          1 2WZ      -0.539500
     15 C23         41.0050   -21.8170   -10.3980 cx         1 2WZ      -0.470700
     16 C24         40.5560   -23.1140    -9.7800 cx         1 2WZ      -0.057900
     17 C25         40.1210   -22.7580   -11.1690 cx         1 2WZ      -0.057900
     18 C3          40.8580   -20.3500   -13.7130 cc         1 2WZ      -0.117600
     19 C10         40.0910   -19.5600   -12.9300 cd         1 2WZ      -0.162200
     20 S1          40.0960   -20.7350   -15.2470 ss         1 2WZ       0.166400
     21 C8          38.6970   -19.7710   -14.8370 ca         1 2WZ      -0.127000
     22 C9          38.8400   -19.2130   -13.5430 ca         1 2WZ      -0.087800
     23 C14         37.8190   -18.4160   -13.0140 ca         1 2WZ      -0.058000
     24 C13         36.6850   -18.1820   -13.7710 ca         1 2WZ      -0.122000
     25 C12         36.5640   -18.7160   -15.0550 ca         1 2WZ      -0.080000
     26 C11         37.5610   -19.5100   -15.6270 cp         1 2WZ      -0.119500
     27 C15         37.4370   -20.0390   -17.0010 cp         1 2WZ       0.409500
     28 C19         36.4720   -19.5680   -17.9010 ca         1 2WZ      -0.141000
     29 N3          38.3180   -20.9810   -17.3560 nb         1 2WZ      -0.685000
     30 C16         38.2580   -21.4810   -18.5910 ca         1 2WZ       0.348900
     31 C17         37.3280   -21.0770   -19.5320 ca         1 2WZ      -0.158000
     32 C18         36.4020   -20.0890   -19.1840 ca         1 2WZ      -0.066300
     33 C20         35.3710   -19.5910   -20.1960 c3         1 2WZ       0.221300
     34 C21         36.0810   -18.8560   -21.3330 c3         1 2WZ      -0.097600
     35 C22         34.5350   -20.7590   -20.7260 c3         1 2WZ      -0.097600
     36 O1          34.4990   -18.6190   -19.6020 oh         1 2WZ      -0.659000
     37 H1          44.9460   -21.7760   -17.1660 h4         1 2WZ       0.039100
     38 H2          45.4540   -17.3640   -16.6300 hn         1 2WZ       0.484500
     39 H3          44.5000   -16.8920   -15.2990 hn         1 2WZ       0.484500
     40 H4          42.1390   -22.0160   -13.4240 h1         1 2WZ       0.100700
     41 H5          42.6890   -19.5940   -11.8300 hn         1 2WZ       0.503000
     42 H6          40.5890   -20.8870   -10.0330 h1         1 2WZ       0.120700
     43 H7          39.8450   -23.0310    -8.9700 hc         1 2WZ       0.086700
     44 H8          41.2920   -23.8980    -9.6750 hc         1 2WZ       0.086700
     45 H9          39.1080   -22.4210   -11.3350 hc         1 2WZ       0.086700
     46 H10         40.5650   -23.3100   -11.9850 hc         1 2WZ       0.086700
     47 H11         40.3720   -19.2170   -11.9440 ha         1 2WZ       0.193000
     48 H12         37.9240   -17.9930   -12.0230 ha         1 2WZ       0.118000
     49 H13         35.8820   -17.5760   -13.3730 ha         1 2WZ       0.118000
     50 H14         35.6630   -18.5110   -15.6150 ha         1 2WZ       0.114000
     51 H15         35.7890   -18.7850   -17.6150 ha         1 2WZ       0.133000
     52 H16         38.9930   -22.2400   -18.8380 h4         1 2WZ       0.024100
     53 H17         37.3360   -21.5220   -20.5170 ha         1 2WZ       0.125000
     54 H18         36.6360   -18.0030   -20.9410 hc         1 2WZ       0.048033
     55 H19         36.7780   -19.5200   -21.8440 hc         1 2WZ       0.048033
     56 H20         35.3440   -18.4990   -22.0540 hc         1 2WZ       0.048033
     57 H21         34.0110   -21.2530   -19.9050 hc         1 2WZ       0.048033
     58 H22         33.8010   -20.3840   -21.4390 hc         1 2WZ       0.048033
     59 H23         35.1590   -21.5000   -21.2270 hc         1 2WZ       0.048033
     60 H24         33.9110   -19.0690   -18.9810 ho         1 2WZ       0.442000
@<TRIPOS>BOND
     1     1     2 1   
     2     2     3 ar  
     3     2     9 ar  
     4     3     4 ar  
     5     3    37 1   
     6     4     5 ar  
     7     5     6 1   
     8     5     7 ar  
     9     6    38 1   
    10     6    39 1   
    11     7     8 1   
    12     7     9 ar  
    13     9    10 1   
    14    10    11 1   
    15    10    18 1   
    16    10    40 1   
    17    11    12 1   
    18    11    41 1   
    19    12    13 2   
    20    12    14 2   
    21    12    15 1   
    22    15    16 1   
    23    15    17 1   
    24    15    42 1   
    25    16    17 1   
    26    16    43 1   
    27    16    44 1   
    28    17    45 1   
    29    17    46 1   
    30    18    19 2   
    31    18    20 1   
    32    19    22 1   
    33    19    47 1   
    34    20    21 1   
    35    21    22 ar  
    36    21    26 ar  
    37    22    23 ar  
    38    23    24 ar  
    39    23    48 1   
    40    24    25 ar  
    41    24    49 1   
    42    25    26 ar  
    43    25    50 1   
    44    26    27 1   
    45    27    28 ar  
    46    27    29 ar  
    47    28    32 ar  
    48    28    51 1   
    49    29    30 ar  
    50    30    31 ar  
    51    30    52 1   
    52    31    32 ar  
    53    31    53 1   
    54    32    33 1   
    55    33    34 1   
    56    33    35 1   
    57    33    36 1   
    58    34    54 1   
    59    34    55 1   
    60    34    56 1   
    61    35    57 1   
    62    35    58 1   
    63    35    59 1   
    64    36    60 1   
@<TRIPOS>SUBSTRUCTURE
     1 2WZ         1 TEMP              0 ****  ****    0 ROOT
