@<TRIPOS>MOLECULE
2X0
   26    26     1     0     0
SMALL
abcg2


@<TRIPOS>ATOM
      1 C6           0.6350     0.0450    -0.7670 c3         1 2X0      -0.060100
      2 C8           2.0840    -0.0410    -0.3880 ca         1 2X0      -0.016300
      3 C3          -1.6330     1.1230    -0.1440 c3         1 2X0      -0.151500
      4 P11         -2.7510    -0.3760    -0.0060 p5         1 2X0       1.298500
      5 O12         -4.0940     0.0530    -0.6080 o          1 2X0      -0.929833
      6 O13         -2.0760    -1.5090    -0.7950 o          1 2X0      -0.929833
      7 N10         -2.2210     2.1870     0.6720 n8         1 2X0      -0.954200
      8 C1          -0.1800     0.8410     0.2550 c3         1 2X0      -0.043400
      9 C17          2.5640    -1.0910     0.3940 ca         1 2X0      -0.117000
     10 C18          3.8980    -1.1500     0.7770 ca         1 2X0      -0.128500
     11 C19          4.7820    -0.1540     0.3830 ca         1 2X0      -0.158000
     12 C20          4.3190     0.9000    -0.3960 ca         1 2X0      -0.128500
     13 C21          2.9840     0.9530    -0.7730 ca         1 2X0      -0.117000
     14 H1           0.5450     0.5300    -1.7450 hc         1 2X0       0.080200
     15 H2           0.1970    -0.9470    -0.8670 hc         1 2X0       0.080200
     16 H3          -1.6280     1.4640    -1.1900 h1         1 2X0       0.022700
     17 H6          -2.4080     1.7950     1.5890 hn         1 2X0       0.349000
     18 H7          -1.5390     2.9240     0.8200 hn         1 2X0       0.349000
     19 H9          -0.1690     0.3210     1.2190 hc         1 2X0      -0.001800
     20 H10          0.3320     1.7980     0.4240 hc         1 2X0      -0.001800
     21 H11          1.8820    -1.8750     0.7060 ha         1 2X0       0.120000
     22 H12          4.2480    -1.9780     1.3800 ha         1 2X0       0.083500
     23 H13          5.8230    -0.1980     0.6780 ha         1 2X0       0.078000
     24 H14          5.0010     1.6790    -0.7140 ha         1 2X0       0.083500
     25 H15          2.6330     1.7800    -1.3820 ha         1 2X0       0.120000
     26 O11         -2.8070    -0.6330     1.5120 o          1 2X0      -0.929833
@<TRIPOS>BOND
     1     1     2 1   
     2     1     8 1   
     3     1    14 1   
     4     1    15 1   
     5     2     9 ar  
     6     2    13 ar  
     7     3     4 1   
     8     3     7 1   
     9     3     8 1   
    10     3    16 1   
    11     4     5 1   
    12     4     6 1   
    13     4    26 1   
    14     7    17 1   
    15     7    18 1   
    16     8    19 1   
    17     8    20 1   
    18     9    10 ar  
    19     9    21 1   
    20    10    11 ar  
    21    10    22 1   
    22    11    12 ar  
    23    11    23 1   
    24    12    13 ar  
    25    12    24 1   
    26    13    25 1   
@<TRIPOS>SUBSTRUCTURE
     1 2X0         1 TEMP              0 ****  ****    0 ROOT
