@<TRIPOS>MOLECULE
2X0
   26    26     1     0     0
SMALL
No Charge or Current Charge


@<TRIPOS>ATOM
      1 C6           0.5970     0.0360    -0.6650 c3         1 2X0      -0.060100
      2 C8           2.0780    -0.0320    -0.3090 ca         1 2X0      -0.016300
      3 C3          -1.6920     1.1640    -0.0480 c3         1 2X0      -0.151500
      4 P11         -2.7340    -0.4450    -0.2960 p5         1 2X0       1.298500
      5 O12         -4.1870    -0.0930    -0.2940 o          1 2X0      -0.929833
      6 O13         -2.3860    -1.0730    -1.6050 o          1 2X0      -0.929833
      7 N10         -2.2000     2.2900     0.8350 n8         1 2X0      -0.954200
      8 C1          -0.2090     0.8860     0.3450 c3         1 2X0      -0.043400
      9 C17          2.5370    -0.9600     0.6460 ca         1 2X0      -0.117000
     10 C18          3.9020    -1.0240     0.9760 ca         1 2X0      -0.128500
     11 C19          4.8160    -0.1580     0.3540 ca         1 2X0      -0.158000
     12 C20          4.3660     0.7710    -0.5980 ca         1 2X0      -0.128500
     13 C21          3.0010     0.8340    -0.9280 ca         1 2X0      -0.117000
     14 H1           0.4710     0.4540    -1.6710 hc         1 2X0       0.080200
     15 H2           0.1890    -0.9800    -0.7030 hc         1 2X0       0.080200
     16 H3          -1.6670     1.5850    -1.0610 h1         1 2X0       0.022700
     17 H6          -2.3640     1.9290     1.7820 hn         1 2X0       0.349000
     18 H7          -1.4610     2.9910     0.9560 hn         1 2X0       0.349000
     19 H9          -0.1760     0.4000     1.3270 hc         1 2X0      -0.001800
     20 H10          0.3120     1.8460     0.4580 hc         1 2X0      -0.001800
     21 H11          1.8330    -1.6320     1.1330 ha         1 2X0       0.120000
     22 H12          4.2490    -1.7430     1.7140 ha         1 2X0       0.083500
     23 H13          5.8720    -0.2070     0.6100 ha         1 2X0       0.078000
     24 H14          5.0730     1.4420    -1.0790 ha         1 2X0       0.083500
     25 H15          2.6600     1.5590    -1.6650 ha         1 2X0       0.120000
     26 O11         -2.4580    -1.3980     0.8200 o          1 2X0      -0.929833
@<TRIPOS>BOND
     1     1     2 1   
     2     1     8 1   
     3     1    14 1   
     4     1    15 1   
     5     2     9 ar  
     6     2    13 ar  
     7     3     4 1   
     8     3     7 1   
     9     3     8 1   
    10     3    16 1   
    11     4     5 1   
    12     4     6 1   
    13     4    26 1   
    14     7    17 1   
    15     7    18 1   
    16     8    19 1   
    17     8    20 1   
    18     9    10 ar  
    19     9    21 1   
    20    10    11 ar  
    21    10    22 1   
    22    11    12 ar  
    23    11    23 1   
    24    12    13 ar  
    25    12    24 1   
    26    13    25 1   
@<TRIPOS>SUBSTRUCTURE
     1 2X0         1 TEMP              0 ****  ****    0 ROOT
