@<TRIPOS>MOLECULE
2X1
   38    39     1     0     0
SMALL
abcg2


@<TRIPOS>ATOM
      1 C1           0.4350     0.4150     0.1100 c          1 2X1       0.671100
      2 N3           1.6630    -0.0880     0.4390 ns         1 2X1      -0.162000
      3 N4          -0.5740    -0.4780     0.3660 ns         1 2X1      -0.162000
      4 C5          -4.7390    -0.2310    -0.1660 ca         1 2X1      -0.228900
      5 N6          -6.7870     1.0260    -0.2970 nv         1 2X1      -1.031200
      6 O7           0.2570     1.5260    -0.3550 o          1 2X1      -0.603100
      7 C8           2.9130     0.5150     0.2770 ca         1 2X1      -0.014000
      8 C9          -4.1220    -1.3450     0.4010 ca         1 2X1      -0.056500
      9 C10         -3.9280     0.8310    -0.5560 ca         1 2X1      -0.056500
     10 N11         -6.9250    -1.2380    -0.6280 n2         1 2X1      -0.848100
     11 C12         -1.9410    -0.3240     0.1640 ca         1 2X1       0.014000
     12 C13          4.0210    -0.3350     0.3260 ca         1 2X1      -0.148000
     13 C14         -2.7530    -1.3910     0.5670 ca         1 2X1      -0.161000
     14 C15         -2.5500     0.7960    -0.4060 ca         1 2X1      -0.161000
     15 C16          5.3140     0.1510     0.2030 ca         1 2X1      -0.058300
     16 C18          4.4070     2.3670    -0.0230 ca         1 2X1      -0.086000
     17 C19          3.1110     1.8860     0.1080 ca         1 2X1      -0.126000
     18 C20          6.5060    -0.7700     0.2950 c3         1 2X1       0.196100
     19 C21          5.5020     1.5190     0.0170 ca         1 2X1      -0.137000
     20 H1           1.7040    -1.0510     0.7360 hn         1 2X1       0.147000
     21 H2          -0.3110    -1.3650     0.7680 hn         1 2X1       0.148000
     22 H3          -6.3690     1.7130     0.3080 hn         1 2X1       0.467500
     23 H4          -7.7940     1.0440    -0.3070 hn         1 2X1       0.467500
     24 H5          -4.7130    -2.1870     0.7390 ha         1 2X1       0.122000
     25 H6          -4.3660     1.7090    -1.0120 ha         1 2X1       0.122000
     26 H7          -6.3410    -2.0570    -0.7540 hn         1 2X1       0.386400
     27 H8           3.8730    -1.4010     0.4530 ha         1 2X1       0.127000
     28 H9          -2.3050    -2.2670     1.0200 ha         1 2X1       0.132000
     29 H10         -1.9680     1.6380    -0.7400 ha         1 2X1       0.132000
     30 H11          6.0550    -2.1910    -1.0830 hn         1 2X1       0.398500
     31 H12          6.9780    -2.7320     0.1310 hn         1 2X1       0.398500
     32 H14          4.5570     3.4300    -0.1600 ha         1 2X1       0.115000
     33 H15          2.2830     2.5740     0.0780 ha         1 2X1       0.146000
     34 H16          7.3280    -0.3280    -0.2840 h1         1 2X1       0.037200
     35 H17          6.8490    -0.7800     1.3340 h1         1 2X1       0.037200
     36 H18          6.5030     1.9180    -0.0990 ha         1 2X1       0.112000
     37 C2          -6.2120    -0.2100    -0.3650 ce         1 2X1       0.666800
     38 N17          6.1890    -2.1350    -0.0810 n8         1 2X1      -1.004200
@<TRIPOS>BOND
     1     1     2 1   
     2     1     3 1   
     3     1     6 2   
     4     2     7 1   
     5     2    20 1   
     6     3    11 1   
     7     3    21 1   
     8     4     8 ar  
     9     4     9 ar  
    10     4    37 1   
    11     5    22 1   
    12     5    23 1   
    13     5    37 1   
    14     7    12 ar  
    15     7    17 ar  
    16     8    13 ar  
    17     8    24 1   
    18     9    14 ar  
    19     9    25 1   
    20    10    26 1   
    21    10    37 2   
    22    11    13 ar  
    23    11    14 ar  
    24    12    15 ar  
    25    12    27 1   
    26    13    28 1   
    27    14    29 1   
    28    15    18 1   
    29    15    19 ar  
    30    16    17 ar  
    31    16    19 ar  
    32    16    32 1   
    33    17    33 1   
    34    18    34 1   
    35    18    35 1   
    36    18    38 1   
    37    19    36 1   
    38    30    38 1   
    39    31    38 1   
@<TRIPOS>SUBSTRUCTURE
     1 2X1         1 TEMP              0 ****  ****    0 ROOT
