@<TRIPOS>MOLECULE
2X1
   38    39     1     0     0
SMALL
No Charge or Current Charge


@<TRIPOS>ATOM
      1 C1           0.3770     0.5280    -0.0370 c          1 2X1       0.671100
      2 N3           1.6180    -0.0500     0.1940 ns         1 2X1      -0.162000
      3 N4          -0.6500    -0.3810     0.1740 ns         1 2X1      -0.162000
      4 C5          -4.9060    -0.2080    -0.1160 ca         1 2X1      -0.228900
      5 N6          -7.0210     0.9850    -0.0810 nv         1 2X1      -1.031200
      6 O7           0.2100     1.6930    -0.3780 o          1 2X1      -0.603100
      7 C8           2.9450     0.4590     0.1130 ca         1 2X1      -0.014000
      8 C9          -4.2360    -1.3600     0.3520 ca         1 2X1      -0.056500
      9 C10         -4.1290     0.8990    -0.5260 ca         1 2X1      -0.056500
     10 N11         -7.0970    -1.2370    -0.3580 n2         1 2X1      -0.848100
     11 C12         -2.0630    -0.2750     0.0560 ca         1 2X1       0.014000
     12 C13          3.9970    -0.4160     0.4470 ca         1 2X1      -0.148000
     13 C14         -2.8340    -1.3860     0.4410 ca         1 2X1      -0.161000
     14 C15         -2.7260     0.8680    -0.4360 ca         1 2X1      -0.161000
     15 C16          5.3400     0.0050     0.3930 ca         1 2X1      -0.058300
     16 C18          4.5940     2.2060    -0.3400 ca         1 2X1      -0.086000
     17 C19          3.2560     1.7790    -0.2840 ca         1 2X1      -0.126000
     18 C20          6.4650    -0.9550     0.7660 c3         1 2X1       0.196100
     19 C21          5.6320     1.3230    -0.0030 ca         1 2X1      -0.137000
     20 H1           1.5750    -1.0210     0.4740 hn         1 2X1       0.147000
     21 H2          -0.3370    -1.2980     0.4660 hn         1 2X1       0.148000
     22 H3          -6.4990     1.6760     0.4440 hn         1 2X1       0.467500
     23 H4          -8.0010     0.8980     0.1530 hn         1 2X1       0.467500
     24 H5          -4.7960    -2.2390     0.6680 ha         1 2X1       0.122000
     25 H6          -4.6070     1.7890    -0.9300 ha         1 2X1       0.122000
     26 H7          -6.4580    -2.0250    -0.5230 hn         1 2X1       0.386400
     27 H8           3.7730    -1.4370     0.7520 ha         1 2X1       0.127000
     28 H9          -2.3430    -2.2820     0.8160 ha         1 2X1       0.132000
     29 H10         -2.1750     1.7430    -0.7660 ha         1 2X1       0.132000
     30 H11          7.2290    -1.1780    -1.1210 hn         1 2X1       0.398500
     31 H12          7.6930    -2.3490    -0.1080 hn         1 2X1       0.398500
     32 H14          4.8250     3.2240    -0.6470 ha         1 2X1       0.115000
     33 H15          2.4800     2.4890    -0.5530 ha         1 2X1       0.146000
     34 H16          7.3370    -0.3850     1.1170 h1         1 2X1       0.037200
     35 H17          6.1370    -1.6090     1.5860 h1         1 2X1       0.037200
     36 H18          6.6640     1.6640    -0.0500 ha         1 2X1       0.112000
     37 C2          -6.3920    -0.1890    -0.2520 ce         1 2X1       0.666800
     38 N17          6.8730    -1.7920    -0.3790 n8         1 2X1      -1.004200
@<TRIPOS>BOND
     1     1     2 1   
     2     1     3 1   
     3     1     6 2   
     4     2     7 1   
     5     2    20 1   
     6     3    11 1   
     7     3    21 1   
     8     4     8 ar  
     9     4     9 ar  
    10     4    37 1   
    11     5    22 1   
    12     5    23 1   
    13     5    37 1   
    14     7    12 ar  
    15     7    17 ar  
    16     8    13 ar  
    17     8    24 1   
    18     9    14 ar  
    19     9    25 1   
    20    10    26 1   
    21    10    37 2   
    22    11    13 ar  
    23    11    14 ar  
    24    12    15 ar  
    25    12    27 1   
    26    13    28 1   
    27    14    29 1   
    28    15    18 1   
    29    15    19 ar  
    30    16    17 ar  
    31    16    19 ar  
    32    16    32 1   
    33    17    33 1   
    34    18    34 1   
    35    18    35 1   
    36    18    38 1   
    37    19    36 1   
    38    30    38 1   
    39    31    38 1   
@<TRIPOS>SUBSTRUCTURE
     1 2X1         1 TEMP              0 ****  ****    0 ROOT
