@<TRIPOS>MOLECULE
2X4
   44    48     1     0     0
SMALL
No Charge or Current Charge


@<TRIPOS>ATOM
      1 C1          21.0080    11.5300     6.8810 c6         1 2X4       0.149600
      2 O2          21.5860    10.4980     7.7060 os         1 2X4      -0.447000
      3 C3          23.0290    10.5640     7.7970 c6         1 2X4       0.155600
      4 C4          23.4840    11.9130     8.4190 c6         1 2X4       0.139300
      5 C5          22.8690    13.1100     7.6560 c6         1 2X4      -0.077700
      6 C6          21.3240    12.9170     7.4880 c6         1 2X4      -0.106400
      7 O7          24.9210    12.0060     8.3910 os         1 2X4      -0.347100
      8 C8          25.5280    13.2090     8.6780 ca         1 2X4       0.169100
      9 C9          24.8050    14.4280     8.6850 ca         1 2X4      -0.144300
     10 C10         23.2940    14.4460     8.3520 c5         1 2X4       0.183500
     11 C11         26.9020    13.1900     8.9520 ca         1 2X4      -0.144000
     12 C12         27.5810    14.3730     9.2740 ca         1 2X4      -0.057000
     13 C13         26.8910    15.6060     9.3360 cp         1 2X4      -0.080000
     14 C14         25.5040    15.6090     9.0410 ca         1 2X4      -0.053000
     15 N15         22.4910    14.6920     9.5780 n2         1 2X4      -0.708900
     16 C16         22.0910    15.8900     9.4670 c2         1 2X4       0.778500
     17 O17         22.4620    16.6560     8.4230 os         1 2X4      -0.475600
     18 C18         22.9950    15.7120     7.4780 c5         1 2X4       0.131600
     19 C19         27.6070    16.8720     9.7000 cp         1 2X4      -0.059000
     20 C20         26.9650    17.9020    10.4340 ca         1 2X4      -0.067000
     21 C21         27.6780    19.0690    10.7500 ca         1 2X4       0.066000
     22 C22         29.0160    19.1860    10.3270 ca         1 2X4       0.344900
     23 N23         29.6580    18.2200     9.6250 nb         1 2X4      -0.654000
     24 C24         28.9610    17.0960     9.3260 ca         1 2X4       0.339900
     25 N25         21.4140    16.5820    10.3850 nv         1 2X4      -1.010200
     26 Cl1         26.9020    20.3600    11.6670 cl         1 2X4      -0.196000
     27 H1          19.9200    11.3810     6.8300 h1         1 2X4       0.049700
     28 H2          21.4130    11.4540     5.8610 h1         1 2X4       0.049700
     29 H3          23.3850     9.7310     8.4190 h1         1 2X4       0.059200
     30 H4          23.4610    10.4470     6.7930 h1         1 2X4       0.059200
     31 H5          23.1530    11.9460     9.4680 h1         1 2X4       0.085700
     32 H6          23.3100    13.1110     6.6480 hc         1 2X4       0.058700
     33 H7          20.8990    13.6990     6.8450 hc         1 2X4       0.064200
     34 H8          20.8120    12.9950     8.4560 hc         1 2X4       0.064200
     35 H9          27.4420    12.2470     8.9270 ha         1 2X4       0.133000
     36 H10         28.6430    14.3260     9.5010 ha         1 2X4       0.120000
     37 H11         24.9730    16.5540     9.0810 ha         1 2X4       0.112000
     38 H12         22.2280    15.5130     6.7200 h1         1 2X4       0.070700
     39 H13         23.8760    16.1260     6.9690 h1         1 2X4       0.070700
     40 H14         25.9360    17.7940    10.7680 ha         1 2X4       0.135000
     41 H15         29.5930    20.0810    10.5590 h4         1 2X4       0.036100
     42 H16         29.5040    16.3470     8.7510 h4         1 2X4       0.026100
     43 H17         21.5970    17.5720    10.3030 hn         1 2X4       0.488000
     44 H18         21.5470    16.2020    11.3120 hn         1 2X4       0.488000
@<TRIPOS>BOND
     1     1     2 1   
     2     1     6 1   
     3     1    27 1   
     4     1    28 1   
     5     2     3 1   
     6     3     4 1   
     7     3    29 1   
     8     3    30 1   
     9     4     5 1   
    10     4     7 1   
    11     4    31 1   
    12     5     6 1   
    13     5    10 1   
    14     5    32 1   
    15     6    33 1   
    16     6    34 1   
    17     7     8 1   
    18     8     9 ar  
    19     8    11 ar  
    20     9    10 1   
    21     9    14 ar  
    22    10    15 1   
    23    10    18 1   
    24    11    12 ar  
    25    11    35 1   
    26    12    13 ar  
    27    12    36 1   
    28    13    14 ar  
    29    13    19 1   
    30    14    37 1   
    31    15    16 2   
    32    16    17 1   
    33    16    25 1   
    34    17    18 1   
    35    18    38 1   
    36    18    39 1   
    37    19    20 ar  
    38    19    24 ar  
    39    20    21 ar  
    40    20    40 1   
    41    21    22 ar  
    42    21    26 1   
    43    22    23 ar  
    44    22    41 1   
    45    23    24 ar  
    46    24    42 1   
    47    25    43 1   
    48    25    44 1   
@<TRIPOS>SUBSTRUCTURE
     1 2X4         1 TEMP              0 ****  ****    0 ROOT
