@<TRIPOS>MOLECULE
2X4
   44    48     1     0     0
SMALL
abcg2


@<TRIPOS>ATOM
      1 C1          21.1050    11.6450     6.9430 c6         1 2X4       0.149600
      2 O2          21.6760    10.5850     7.7170 os         1 2X4      -0.447000
      3 C3          23.0890    10.6850     7.7860 c6         1 2X4       0.155600
      4 C4          23.5060    11.9980     8.4360 c6         1 2X4       0.139300
      5 C5          22.9290    13.1890     7.6930 c6         1 2X4      -0.077700
      6 C6          21.4180    13.0040     7.5510 c6         1 2X4      -0.106400
      7 O7          24.9410    12.0200     8.4170 os         1 2X4      -0.347100
      8 C8          25.5310    13.2130     8.6980 ca         1 2X4       0.169100
      9 C9          24.8410    14.4300     8.7050 ca         1 2X4      -0.144300
     10 C10         23.3530    14.5020     8.3810 c5         1 2X4       0.183500
     11 C11         26.8990    13.1730     8.9780 ca         1 2X4      -0.144000
     12 C12         27.5830    14.3320     9.2860 ca         1 2X4      -0.057000
     13 C13         26.9150    15.5630     9.3320 cp         1 2X4      -0.080000
     14 C14         25.5520    15.5790     9.0400 ca         1 2X4      -0.053000
     15 N15         22.5950    14.7350     9.6260 n2         1 2X4      -0.708900
     16 C16         21.9630    15.8380     9.4890 c2         1 2X4       0.778500
     17 O17         22.1060    16.5260     8.3260 os         1 2X4      -0.475600
     18 C18         22.9840    15.7300     7.4960 c5         1 2X4       0.131600
     19 C19         27.6310    16.8080     9.6700 cp         1 2X4      -0.059000
     20 C20         27.0110    17.8430    10.3750 ca         1 2X4      -0.067000
     21 C21         27.7360    18.9890    10.6480 ca         1 2X4       0.066000
     22 C22         29.0580    19.0970    10.2350 ca         1 2X4       0.344900
     23 N23         29.6570    18.1140     9.5620 nb         1 2X4      -0.654000
     24 C24         28.9620    17.0120     9.2870 ca         1 2X4       0.339900
     25 N25         21.1010    16.4040    10.3700 nv         1 2X4      -1.010200
     26 CL1         26.9980    20.3060    11.5240 cl         1 2X4      -0.196000
     27 H1          20.0310    11.4600     6.9250 h1         1 2X4       0.049700
     28 H2          21.4880    11.5870     5.9160 h1         1 2X4       0.049700
     29 H3          23.4440     9.8370     8.3710 h1         1 2X4       0.059200
     30 H4          23.5280    10.6310     6.7800 h1         1 2X4       0.059200
     31 H5          23.1740    12.0160     9.4790 h1         1 2X4       0.085700
     32 H6          23.3790    13.1910     6.6920 hc         1 2X4       0.058700
     33 H7          20.9880    13.7870     6.9210 hc         1 2X4       0.064200
     34 H8          20.9450    13.0780     8.5330 hc         1 2X4       0.064200
     35 H9          27.4040    12.2150     8.9660 ha         1 2X4       0.133000
     36 H10         28.6380    14.2760     9.5220 ha         1 2X4       0.120000
     37 H11         25.0270    16.5260     9.0550 ha         1 2X4       0.112000
     38 H12         22.4370    15.4480     6.5990 h1         1 2X4       0.070700
     39 H13         23.8380    16.3420     7.2180 h1         1 2X4       0.070700
     40 H14         25.9900    17.7510    10.7190 ha         1 2X4       0.135000
     41 H15         29.6340    19.9880    10.4500 h4         1 2X4       0.036100
     42 H16         29.4820    16.2500     8.7160 h4         1 2X4       0.026100
     43 H17         20.9400    17.3950    10.2740 hn         1 2X4       0.488000
     44 H18         21.1520    16.0650    11.3180 hn         1 2X4       0.488000
@<TRIPOS>BOND
     1     1     2 1   
     2     1     6 1   
     3     1    27 1   
     4     1    28 1   
     5     2     3 1   
     6     3     4 1   
     7     3    29 1   
     8     3    30 1   
     9     4     5 1   
    10     4     7 1   
    11     4    31 1   
    12     5     6 1   
    13     5    10 1   
    14     5    32 1   
    15     6    33 1   
    16     6    34 1   
    17     7     8 1   
    18     8     9 ar  
    19     8    11 ar  
    20     9    10 1   
    21     9    14 ar  
    22    10    15 1   
    23    10    18 1   
    24    11    12 ar  
    25    11    35 1   
    26    12    13 ar  
    27    12    36 1   
    28    13    14 ar  
    29    13    19 1   
    30    14    37 1   
    31    15    16 2   
    32    16    17 1   
    33    16    25 1   
    34    17    18 1   
    35    18    38 1   
    36    18    39 1   
    37    19    20 ar  
    38    19    24 ar  
    39    20    21 ar  
    40    20    40 1   
    41    21    22 ar  
    42    21    26 1   
    43    22    23 ar  
    44    22    41 1   
    45    23    24 ar  
    46    24    42 1   
    47    25    43 1   
    48    25    44 1   
@<TRIPOS>SUBSTRUCTURE
     1 2X4         1 TEMP              0 ****  ****    0 ROOT
