@<TRIPOS>MOLECULE
2X5
   44    48     1     0     0
SMALL
No Charge or Current Charge


@<TRIPOS>ATOM
      1 C1          20.8230    11.4360     7.8690 c6         1 2X5       0.147600
      2 O2          21.5870    10.8930     6.7710 os         1 2X5      -0.450000
      3 C3          23.0160    10.8730     7.0080 c6         1 2X5       0.155600
      4 C4          23.5540    12.3130     7.2280 c6         1 2X5       0.137300
      5 C5          22.7690    13.0260     8.3590 c6         1 2X5      -0.090700
      6 C6          21.2300    12.9090     8.1100 c6         1 2X5      -0.103400
      7 O7          24.9590    12.2750     7.5440 os         1 2X5      -0.346100
      8 C8          25.5760    13.3960     8.0580 ca         1 2X5       0.158100
      9 C9          24.8330    14.4950     8.5510 ca         1 2X5      -0.148300
     10 C10         23.2960    14.4890     8.5180 c5         1 2X5       0.186500
     11 C11         26.9770    13.4070     8.1050 ca         1 2X5      -0.146000
     12 C12         27.6630    14.5150     8.6250 ca         1 2X5      -0.057000
     13 C13         26.9570    15.6370     9.1200 cp         1 2X5      -0.081000
     14 C14         25.5400    15.6040     9.0730 ca         1 2X5      -0.036000
     15 N15         22.6750    15.1110     9.7160 n2         1 2X5      -0.713900
     16 C16         21.9090    16.0060     9.2480 c2         1 2X5       0.781500
     17 O17         21.7790    16.1840     7.9190 os         1 2X5      -0.475600
     18 C18         22.9100    15.4830     7.3720 c5         1 2X5       0.128600
     19 C19         27.6850    16.8230     9.6770 cp         1 2X5      -0.060000
     20 C20         27.1490    17.5860    10.7460 ca         1 2X5      -0.063000
     21 C21         27.8700    18.6880    11.2330 ca         1 2X5       0.065000
     22 C22         29.1090    19.0070    10.6450 ca         1 2X5       0.344900
     23 N23         29.6480    18.2960     9.6220 nb         1 2X5      -0.657000
     24 C24         28.9450    17.2330     9.1600 ca         1 2X5       0.338900
     25 N25         21.0600    16.7620     9.9450 nv         1 2X5      -1.016200
     26 Cl1         27.2270    19.6490    12.5640 cl         1 2X5      -0.195000
     27 H1          19.7530    11.3770     7.6240 h1         1 2X5       0.052700
     28 H2          21.0010    10.8350     8.7720 h1         1 2X5       0.052700
     29 H3          23.2290    10.2500     7.8880 h1         1 2X5       0.062700
     30 H4          23.5140    10.4200     6.1400 h1         1 2X5       0.062700
     31 H5          23.4310    12.8730     6.2900 h1         1 2X5       0.057700
     32 H6          22.9930    12.4940     9.2950 hc         1 2X5       0.086700
     33 H7          20.9280    13.5060     7.2390 hc         1 2X5       0.057200
     34 H8          20.6690    13.3020     8.9690 hc         1 2X5       0.057200
     35 H9          27.5330    12.5510     7.7340 ha         1 2X5       0.132000
     36 H10         28.7500    14.4920     8.6570 ha         1 2X5       0.120000
     37 H11         24.9800    16.4610     9.4370 ha         1 2X5       0.125000
     38 H12         22.6380    14.9950     6.4280 h1         1 2X5       0.072700
     39 H13         23.7030    16.2150     7.1690 h1         1 2X5       0.072700
     40 H14         26.1990    17.3210    11.2020 ha         1 2X5       0.141000
     41 H15         29.6900    19.8560    11.0030 h4         1 2X5       0.035100
     42 H16         29.4030    16.6940     8.3320 h4         1 2X5       0.024100
     43 H17         20.2720    17.0420     9.3780 hn         1 2X5       0.491000
     44 H18         20.8140    16.3320    10.8260 hn         1 2X5       0.491000
@<TRIPOS>BOND
     1     1     2 1   
     2     1     6 1   
     3     1    27 1   
     4     1    28 1   
     5     2     3 1   
     6     3     4 1   
     7     3    29 1   
     8     3    30 1   
     9     4     5 1   
    10     4     7 1   
    11     4    31 1   
    12     5     6 1   
    13     5    10 1   
    14     5    32 1   
    15     6    33 1   
    16     6    34 1   
    17     7     8 1   
    18     8     9 ar  
    19     8    11 ar  
    20     9    10 1   
    21     9    14 ar  
    22    10    15 1   
    23    10    18 1   
    24    11    12 ar  
    25    11    35 1   
    26    12    13 ar  
    27    12    36 1   
    28    13    14 ar  
    29    13    19 1   
    30    14    37 1   
    31    15    16 2   
    32    16    17 1   
    33    16    25 1   
    34    17    18 1   
    35    18    38 1   
    36    18    39 1   
    37    19    20 ar  
    38    19    24 ar  
    39    20    21 ar  
    40    20    40 1   
    41    21    22 ar  
    42    21    26 1   
    43    22    23 ar  
    44    22    41 1   
    45    23    24 ar  
    46    24    42 1   
    47    25    43 1   
    48    25    44 1   
@<TRIPOS>SUBSTRUCTURE
     1 2X5         1 TEMP              0 ****  ****    0 ROOT
