@<TRIPOS>MOLECULE
2X5
   44    48     1     0     0
SMALL
abcg2


@<TRIPOS>ATOM
      1 C1          20.9460    11.4630     7.8790 c6         1 2X5       0.147600
      2 O2          21.6980    10.8800     6.8090 os         1 2X5      -0.450000
      3 C3          23.0930    10.9220     7.0640 c6         1 2X5       0.155600
      4 C4          23.5700    12.3620     7.2150 c6         1 2X5       0.137300
      5 C5          22.8070    13.0770     8.3160 c6         1 2X5      -0.090700
      6 C6          21.3040    12.9290     8.0710 c6         1 2X5      -0.103400
      7 O7          24.9750    12.2990     7.4960 os         1 2X5      -0.346100
      8 C8          25.5530    13.4040     8.0400 ca         1 2X5       0.158100
      9 C9          24.8260    14.4970     8.5230 ca         1 2X5      -0.148300
     10 C10         23.3090    14.5270     8.4530 c5         1 2X5       0.186500
     11 C11         26.9480    13.3980     8.1170 ca         1 2X5      -0.146000
     12 C12         27.6230    14.4790     8.6500 ca         1 2X5      -0.057000
     13 C13         26.9220    15.5950     9.1280 cp         1 2X5      -0.081000
     14 C14         25.5290    15.5720     9.0560 ca         1 2X5      -0.036000
     15 N15         22.7190    15.1390     9.6560 n2         1 2X5      -0.713900
     16 C16         21.8750    16.0170     9.2580 c2         1 2X5       0.781500
     17 O17         21.7580    16.2360     7.9220 os         1 2X5      -0.475600
     18 C18         22.8230    15.4670     7.3130 c5         1 2X5       0.128600
     19 C19         27.6330    16.7620     9.6850 cp         1 2X5      -0.060000
     20 C20         27.0950    17.5230    10.7250 ca         1 2X5      -0.063000
     21 C21         27.8100    18.6130    11.1890 ca         1 2X5       0.065000
     22 C22         29.0430    18.9320    10.6330 ca         1 2X5       0.344900
     23 N23         29.5620    18.2120     9.6390 nb         1 2X5      -0.657000
     24 C24         28.8760    17.1650     9.1810 ca         1 2X5       0.338900
     25 N25         21.0890    16.8040    10.0280 nv         1 2X5      -1.016200
     26 CL1         27.1770    19.5910    12.4890 cl         1 2X5      -0.195000
     27 H1          19.8970    11.3460     7.6090 h1         1 2X5       0.052700
     28 H2          21.1360    10.8980     8.8010 h1         1 2X5       0.052700
     29 H3          23.3330    10.3690     7.9820 h1         1 2X5       0.062700
     30 H4          23.5890    10.4400     6.2210 h1         1 2X5       0.062700
     31 H5          23.4370    12.8860     6.2610 h1         1 2X5       0.057700
     32 H6          23.0480    12.5770     9.2610 hc         1 2X5       0.086700
     33 H7          21.0000    13.4800     7.1790 hc         1 2X5       0.057200
     34 H8          20.7460    13.3340     8.9170 hc         1 2X5       0.057200
     35 H9          27.4860    12.5310     7.7530 ha         1 2X5       0.132000
     36 H10         28.7030    14.4460     8.7130 ha         1 2X5       0.120000
     37 H11         24.9590    16.4190     9.4150 ha         1 2X5       0.125000
     38 H12         22.4220    14.9520     6.4440 h1         1 2X5       0.072700
     39 H13         23.6040    16.1590     7.0000 h1         1 2X5       0.072700
     40 H14         26.1470    17.2630    11.1750 ha         1 2X5       0.141000
     41 H15         29.6120    19.7790    10.9960 h4         1 2X5       0.035100
     42 H16         29.3250    16.6240     8.3570 h4         1 2X5       0.024100
     43 H17         20.3060    17.2510     9.5780 hn         1 2X5       0.491000
     44 H18         20.9330    16.4950    10.9750 hn         1 2X5       0.491000
@<TRIPOS>BOND
     1     1     2 1   
     2     1     6 1   
     3     1    27 1   
     4     1    28 1   
     5     2     3 1   
     6     3     4 1   
     7     3    29 1   
     8     3    30 1   
     9     4     5 1   
    10     4     7 1   
    11     4    31 1   
    12     5     6 1   
    13     5    10 1   
    14     5    32 1   
    15     6    33 1   
    16     6    34 1   
    17     7     8 1   
    18     8     9 ar  
    19     8    11 ar  
    20     9    10 1   
    21     9    14 ar  
    22    10    15 1   
    23    10    18 1   
    24    11    12 ar  
    25    11    35 1   
    26    12    13 ar  
    27    12    36 1   
    28    13    14 ar  
    29    13    19 1   
    30    14    37 1   
    31    15    16 2   
    32    16    17 1   
    33    16    25 1   
    34    17    18 1   
    35    18    38 1   
    36    18    39 1   
    37    19    20 ar  
    38    19    24 ar  
    39    20    21 ar  
    40    20    40 1   
    41    21    22 ar  
    42    21    26 1   
    43    22    23 ar  
    44    22    41 1   
    45    23    24 ar  
    46    24    42 1   
    47    25    43 1   
    48    25    44 1   
@<TRIPOS>SUBSTRUCTURE
     1 2X5         1 TEMP              0 ****  ****    0 ROOT
