@<TRIPOS>MOLECULE
2X6
   52    56     1     0     0
SMALL
abcg2


@<TRIPOS>ATOM
      1 C1          -4.4780     2.7800    -0.3230 c6         1 2X6      -0.075400
      2 C2          -5.0590     2.3510    -1.6640 c6         1 2X6      -0.073400
      3 C3          -4.3880     1.0790    -2.1640 c6         1 2X6      -0.073400
      4 C11         -0.1780    -4.8440    -0.2230 cc         1 2X6       0.512800
      5 C12          0.7110    -0.8470     0.2700 ca         1 2X6       0.738900
      6 C13          2.4110     0.9260     0.5920 ca         1 2X6       0.286000
      7 C14          1.7770     1.8700     1.3850 ca         1 2X6      -0.098000
      8 C15          2.3170     3.1550     1.5530 ca         1 2X6      -0.127000
      9 C16          3.4990     3.5340     0.9530 ca         1 2X6      -0.078000
     10 C17          4.1650     2.6020     0.1470 ca         1 2X6      -0.085800
     11 C18          3.6060     1.3190    -0.0280 ca         1 2X6      -0.073200
     12 C19          5.4860     1.4090    -1.2180 cc         1 2X6      -0.164100
     13 C20          5.3680     2.6310    -0.6250 cd         1 2X6      -0.244200
     14 C10          1.5640    -3.2050     0.0170 c          1 2X6       0.601600
     15 N2           1.1280    -4.5050    -0.1490 ns         1 2X6      -0.425400
     16 N3          -1.1560    -4.0170    -0.1650 nd         1 2X6      -0.634100
     17 C8          -0.8420    -2.6830    -0.0140 ca         1 2X6       0.286400
     18 C7          -1.8760    -1.7640     0.0320 ca         1 2X6      -0.303000
     19 C9           0.4980    -2.2490     0.0940 ca         1 2X6      -0.396600
     20 N6          -0.2800     0.0170     0.2930 nb         1 2X6      -0.842000
     21 C6          -1.5480    -0.4080     0.1660 ca         1 2X6       0.702900
     22 C5          -3.9060     0.3720     0.2290 c6         1 2X6       0.244500
     23 C4          -4.4880    -0.0340    -1.1290 c6         1 2X6      -0.087400
     24 C           -4.5690     1.6680     0.7190 c6         1 2X6       0.149500
     25 N           -3.9440     2.1070     1.9560 n8         1 2X6      -1.009200
     26 N5           4.4320     0.6180    -0.8590 na         1 2X6      -0.221700
     27 H1          -3.4330     3.0840    -0.4520 hc         1 2X6       0.049700
     28 H2          -5.0060     3.6620     0.0540 hc         1 2X6       0.049700
     29 H3          -6.1350     2.1760    -1.5570 hc         1 2X6       0.041200
     30 H4          -4.9480     3.1560    -2.3930 hc         1 2X6       0.041200
     31 H5          -4.8430     0.7510    -3.1010 hc         1 2X6       0.049200
     32 H6          -3.3360     1.2830    -2.3850 hc         1 2X6       0.049200
     33 H7          -0.3730    -5.9030    -0.3430 h5         1 2X6       0.043800
     34 H8           0.8540     1.6170     1.8820 ha         1 2X6       0.131000
     35 H9           1.7860     3.8570     2.1820 ha         1 2X6       0.109000
     36 H10          3.9010     4.5290     1.0990 ha         1 2X6       0.113000
     37 H11          6.2490     1.0310    -1.8810 h4         1 2X6       0.210000
     38 H12          6.0550     3.4570    -0.7260 ha         1 2X6       0.203000
     39 H13          1.8260    -5.2340    -0.2110 hn         1 2X6       0.331500
     40 H14         -2.8960    -2.1120    -0.0380 ha         1 2X6       0.139000
     41 H15         -2.1340     1.4610     0.5180 hn         1 2X6       0.520000
     42 H16         -4.1350    -0.4170     0.9590 h1         1 2X6       0.044700
     43 H17         -5.5390    -0.3000    -0.9770 hc         1 2X6       0.050700
     44 H18         -3.9980    -0.9370    -1.4950 hc         1 2X6       0.050700
     45 H19         -5.6340     1.4210     0.8470 h1         1 2X6       0.025700
     46 H20         -4.4050     2.9470     2.2830 hn         1 2X6       0.402000
     47 H21         -4.0870     1.4130     2.6810 hn         1 2X6       0.402000
     48 H23          2.6890    -1.1170     0.3640 hn         1 2X6       0.534000
     49 H24          4.2740    -0.3110    -1.2130 hn         1 2X6       0.355000
     50 N1          -2.4710     0.5700     0.1840 nu         1 2X6      -0.905100
     51 N4           1.9800    -0.3920     0.4090 nu         1 2X6      -0.948900
     52 O            2.7710    -2.9710     0.0820 o          1 2X6      -0.601000
@<TRIPOS>BOND
     1     1     2 1   
     2     1    24 1   
     3     1    27 1   
     4     1    28 1   
     5     2     3 1   
     6     2    29 1   
     7     2    30 1   
     8     3    23 1   
     9     3    31 1   
    10     3    32 1   
    11     4    15 1   
    12     4    16 2   
    13     4    33 1   
    14     5    19 ar  
    15     5    20 ar  
    16     5    51 1   
    17     6     7 ar  
    18     6    11 ar  
    19     6    51 1   
    20     7     8 ar  
    21     7    34 1   
    22     8     9 ar  
    23     8    35 1   
    24     9    10 ar  
    25     9    36 1   
    26    10    11 ar  
    27    10    13 1   
    28    11    26 1   
    29    12    13 2   
    30    12    26 1   
    31    12    37 1   
    32    13    38 1   
    33    14    15 1   
    34    14    19 1   
    35    14    52 2   
    36    15    39 1   
    37    16    17 1   
    38    17    18 ar  
    39    17    19 ar  
    40    18    21 ar  
    41    18    40 1   
    42    20    21 ar  
    43    21    50 1   
    44    22    23 1   
    45    22    24 1   
    46    22    42 1   
    47    22    50 1   
    48    23    43 1   
    49    23    44 1   
    50    24    25 1   
    51    24    45 1   
    52    25    46 1   
    53    25    47 1   
    54    26    49 1   
    55    41    50 1   
    56    48    51 1   
@<TRIPOS>SUBSTRUCTURE
     1 2X6         1 TEMP              0 ****  ****    0 ROOT
