@<TRIPOS>MOLECULE
2X6
   52    56     1     0     0
SMALL
No Charge or Current Charge


@<TRIPOS>ATOM
      1 C1          -4.5490     2.8440    -0.2970 c6         1 2X6      -0.075400
      2 C2          -5.5100     2.3880    -1.4200 c6         1 2X6      -0.073400
      3 C3          -4.9930     1.1000    -2.1030 c6         1 2X6      -0.073400
      4 C11         -0.0100    -4.9290    -0.2450 cc         1 2X6       0.512800
      5 C12          0.6400    -0.8740     0.0970 ca         1 2X6       0.738900
      6 C13          2.3640     0.9960     0.4880 ca         1 2X6       0.286000
      7 C14          1.6160     2.0430     1.0850 ca         1 2X6      -0.098000
      8 C15          2.1820     3.3280     1.2760 ca         1 2X6      -0.127000
      9 C16          3.5090     3.5900     0.8820 ca         1 2X6      -0.078000
     10 C17          4.2290     2.5370     0.3090 ca         1 2X6      -0.085800
     11 C18          3.6940     1.2920     0.1190 ca         1 2X6      -0.073200
     12 C19          5.8570     1.1980    -0.6720 cc         1 2X6      -0.164100
     13 C20          5.5780     2.4660    -0.1850 cd         1 2X6      -0.244200
     14 C10          1.6250    -3.1930     0.0630 c          1 2X6       0.601600
     15 N2           1.2700    -4.4870    -0.0510 ns         1 2X6      -0.425400
     16 N3          -1.0780    -4.1390    -0.3500 nd         1 2X6      -0.634100
     17 C8          -0.7860    -2.7760    -0.2300 ca         1 2X6       0.286400
     18 C7          -1.8380    -1.8760    -0.3320 ca         1 2X6      -0.303000
     19 C9           0.4920    -2.2570    -0.0190 ca         1 2X6      -0.396600
     20 N6          -0.3610    -0.0120    -0.0170 nb         1 2X6      -0.842000
     21 C6          -1.5570    -0.5210    -0.2200 ca         1 2X6       0.702900
     22 C5          -3.8710     0.3680     0.1110 c6         1 2X6       0.244500
     23 C4          -4.7990    -0.0400    -1.0710 c6         1 2X6      -0.087400
     24 C           -4.3330     1.7280     0.7640 c6         1 2X6       0.149500
     25 N           -3.3790     2.2170     1.7980 n8         1 2X6      -1.009200
     26 N5           4.6580     0.4770    -0.4750 na         1 2X6      -0.221700
     27 H1          -3.5850     3.1340    -0.7390 hc         1 2X6       0.049700
     28 H2          -4.9530     3.7450     0.1840 hc         1 2X6       0.049700
     29 H3          -6.5120     2.2130    -1.0050 hc         1 2X6       0.041200
     30 H4          -5.6160     3.1870    -2.1670 hc         1 2X6       0.041200
     31 H5          -5.7010     0.7810    -2.8800 hc         1 2X6       0.049200
     32 H6          -4.0430     1.3060    -2.6150 hc         1 2X6       0.049200
     33 H7          -0.0720    -6.0080    -0.3140 h5         1 2X6       0.043800
     34 H8           0.6010     1.8650     1.4230 ha         1 2X6       0.131000
     35 H9           1.5890     4.1160     1.7360 ha         1 2X6       0.109000
     36 H10          3.9590     4.5700     1.0230 ha         1 2X6       0.113000
     37 H11          6.7520     0.7730    -1.1200 h4         1 2X6       0.210000
     38 H12          6.2870     3.2920    -0.1820 ha         1 2X6       0.203000
     39 H13          2.0190    -5.1620     0.0030 hn         1 2X6       0.331500
     40 H14         -2.8480    -2.2270    -0.4980 ha         1 2X6       0.139000
     41 H15         -2.0120     1.3270    -0.0050 hn         1 2X6       0.520000
     42 H16         -3.9470    -0.4070     0.8890 h1         1 2X6       0.044700
     43 H17         -5.7800    -0.3240    -0.6660 hc         1 2X6       0.050700
     44 H18         -4.4130    -0.9330    -1.5770 hc         1 2X6       0.050700
     45 H19         -5.2930     1.5510     1.2720 h1         1 2X6       0.025700
     46 H20         -3.7930     3.0270     2.2740 hn         1 2X6       0.402000
     47 H21         -3.3080     1.5140     2.5440 hn         1 2X6       0.402000
     48 H23          2.5780    -1.0300     0.2820 hn         1 2X6       0.534000
     49 H24          4.5140    -0.4910    -0.7470 hn         1 2X6       0.355000
     50 N1          -2.4680     0.4750    -0.3150 nu         1 2X6      -0.905100
     51 N4           1.8650    -0.3010     0.3060 nu         1 2X6      -0.948900
     52 O            2.7920    -2.8610     0.2060 o          1 2X6      -0.601000
@<TRIPOS>BOND
     1     1     2 1   
     2     1    24 1   
     3     1    27 1   
     4     1    28 1   
     5     2     3 1   
     6     2    29 1   
     7     2    30 1   
     8     3    23 1   
     9     3    31 1   
    10     3    32 1   
    11     4    15 1   
    12     4    16 2   
    13     4    33 1   
    14     5    19 ar  
    15     5    20 ar  
    16     5    51 1   
    17     6     7 ar  
    18     6    11 ar  
    19     6    51 1   
    20     7     8 ar  
    21     7    34 1   
    22     8     9 ar  
    23     8    35 1   
    24     9    10 ar  
    25     9    36 1   
    26    10    11 ar  
    27    10    13 1   
    28    11    26 1   
    29    12    13 2   
    30    12    26 1   
    31    12    37 1   
    32    13    38 1   
    33    14    15 1   
    34    14    19 1   
    35    14    52 2   
    36    15    39 1   
    37    16    17 1   
    38    17    18 ar  
    39    17    19 ar  
    40    18    21 ar  
    41    18    40 1   
    42    20    21 ar  
    43    21    50 1   
    44    22    23 1   
    45    22    24 1   
    46    22    42 1   
    47    22    50 1   
    48    23    43 1   
    49    23    44 1   
    50    24    25 1   
    51    24    45 1   
    52    25    46 1   
    53    25    47 1   
    54    26    49 1   
    55    41    50 1   
    56    48    51 1   
@<TRIPOS>SUBSTRUCTURE
     1 2X6         1 TEMP              0 ****  ****    0 ROOT
