@<TRIPOS>MOLECULE
2X7
   14    14     1     0     0
SMALL
No Charge or Current Charge


@<TRIPOS>ATOM
      1 O1          -1.6790    -1.5410     0.3290 o          1 2X7      -0.477000
      2 C1          -0.7480    -0.7860     0.0610 c          1 2X7       0.547800
      3 C2          -0.8880     0.7130     0.0830 cc         1 2X7       0.405600
      4 N           -2.0610     1.2240     0.3500 n2         1 2X7      -0.696100
      5 C3           0.1530     1.6440    -0.2530 cc         1 2X7      -0.279600
      6 C4           1.5100     1.4180    -0.4000 cd         1 2X7      -0.127000
      7 C5           2.2060     0.1930    -0.0960 cd         1 2X7      -0.283000
      8 C6           1.6540    -1.0480     0.1520 cc         1 2X7       0.050100
      9 O2           0.4290    -1.3080    -0.3880 os         1 2X7      -0.362200
     10 H1          -2.7250     0.4570     0.5420 hn         1 2X7       0.409400
     11 H2          -0.1810     2.6740    -0.3460 ha         1 2X7       0.204000
     12 H3           2.1290     2.2880    -0.6210 ha         1 2X7       0.186000
     13 H4           3.2900     0.2570    -0.0170 ha         1 2X7       0.196000
     14 H5           2.1990    -1.9450     0.4400 h4         1 2X7       0.223000
@<TRIPOS>BOND
     1     1     2 2   
     2     2     3 1   
     3     2     9 1   
     4     3     4 2   
     5     3     5 1   
     6     4    10 1   
     7     5     6 2   
     8     5    11 1   
     9     6     7 1   
    10     6    12 1   
    11     7     8 2   
    12     7    13 1   
    13     8     9 1   
    14     8    14 1   
@<TRIPOS>SUBSTRUCTURE
     1 2X7         1 TEMP              0 ****  ****    0 ROOT
