@<TRIPOS>MOLECULE
2X7
   14    14     1     0     0
SMALL
bcc


@<TRIPOS>ATOM
      1 O1          -1.7610    -1.4600    -0.0550 o          1 2X7      -0.552500
      2 C1          -0.7720    -0.7870     0.0180 c          1 2X7       0.623300
      3 C2          -0.8940     0.7250     0.1160 cc         1 2X7       0.405600
      4 N           -2.0180     1.2110     0.4510 n2         1 2X7      -0.696100
      5 C3           0.1670     1.6430    -0.2690 cc         1 2X7      -0.229600
      6 C4           1.4860     1.4160    -0.3460 cd         1 2X7      -0.077000
      7 C5           2.1920     0.1930    -0.0700 cd         1 2X7      -0.233000
      8 C6           1.6840    -1.0250     0.1040 cc         1 2X7       0.100100
      9 O2           0.3960    -1.4390     0.0130 os         1 2X7      -0.362200
     10 H1          -2.7000     0.4840     0.6520 hn         1 2X7       0.409400
     11 H2          -0.1910     2.6440    -0.4730 ha         1 2X7       0.154000
     12 H3           2.1090     2.2600    -0.6140 ha         1 2X7       0.136000
     13 H4           3.2700     0.2510     0.0040 ha         1 2X7       0.146000
     14 H5           2.3200    -1.8750     0.3050 h4         1 2X7       0.173000
@<TRIPOS>BOND
     1     1     2 2   
     2     2     3 1   
     3     2     9 1   
     4     3     4 2   
     5     3     5 1   
     6     4    10 1   
     7     5     6 2   
     8     5    11 1   
     9     6     7 1   
    10     6    12 1   
    11     7     8 2   
    12     7    13 1   
    13     8     9 1   
    14     8    14 1   
@<TRIPOS>SUBSTRUCTURE
     1 2X7         1 TEMP              0 ****  ****    0 ROOT
