@<TRIPOS>MOLECULE
2X9
   37    39     1     0     0
SMALL
bcc


@<TRIPOS>ATOM
      1 C1           4.6360     0.9130    -2.0960 c3         1 2X9      -0.141400
      2 C2           3.5500     0.9040    -1.0640 ca         1 2X9       0.442600
      3 C3           1.5570     1.0300     0.8070 ca         1 2X9      -0.227600
      4 F4          -5.1490    -2.9180    -0.3300 f          1 2X9      -0.125900
      5 C5           3.1190    -0.2950    -0.4810 ca         1 2X9      -0.095600
      6 C6           2.1050    -0.1980     0.4570 ca         1 2X9      -0.094000
      7 C7           2.0570     2.1660     0.1740 ca         1 2X9       0.399600
      8 N8           3.0270     2.0800    -0.7350 nb         1 2X9      -0.699000
      9 C9           3.7260    -1.6150    -0.8260 c3         1 2X9      -0.192100
     10 C11          1.5430     3.5440     0.4780 c3         1 2X9      -0.134400
     11 C12          0.4420     1.0780     1.8240 c3         1 2X9      -0.046400
     12 F13         -2.9290    -2.9260     1.2050 f          1 2X9      -0.100900
     13 C20          5.0830    -1.9000    -0.1300 c          1 2X9       0.935600
     14 O23          5.5970    -3.0020    -0.4010 o          1 2X9      -0.828300
     15 O24          5.5350    -1.0260     0.6310 o          1 2X9      -0.828300
     16 C28         -0.8450     0.6340     1.2080 cc         1 2X9       0.429200
     17 N29         -1.3400    -0.5460     1.3400 nd         1 2X9      -0.523100
     18 S30         -1.7370     1.7210     0.1660 ss         1 2X9      -0.037100
     19 C32         -2.8730     0.4560    -0.1140 ca         1 2X9      -0.124100
     20 C33         -4.4030    -1.8150    -0.2550 ca         1 2X9       0.107900
     21 C34         -4.0160     0.4440    -0.8910 ca         1 2X9       0.186900
     22 C35         -2.4880    -0.6830     0.6070 ca         1 2X9       0.107400
     23 C36         -3.2710    -1.8310     0.5300 ca         1 2X9       0.135900
     24 C37         -4.7920    -0.6880    -0.9720 ca         1 2X9      -0.196000
     25 F38         -4.3540     1.5440    -1.5650 f          1 2X9      -0.127900
     26 H1           5.5670     0.5200    -1.6870 hc         1 2X9       0.049700
     27 H2           4.3780     0.2910    -2.9560 hc         1 2X9       0.049700
     28 H3           4.8150     1.9260    -2.4520 hc         1 2X9       0.049700
     29 H4           1.7310    -1.1000     0.9310 ha         1 2X9       0.139000
     30 H5           3.0320    -2.4170    -0.5570 hc         1 2X9       0.036700
     31 H6           3.8720    -1.7060    -1.9070 hc         1 2X9       0.036700
     32 H7           1.6480     3.7930     1.5350 hc         1 2X9       0.035367
     33 H8           2.0950     4.2820    -0.1000 hc         1 2X9       0.035367
     34 H9           0.4860     3.6550     0.2300 hc         1 2X9       0.035367
     35 H10          0.6600     0.3990     2.6480 hc         1 2X9       0.072200
     36 H11          0.3310     2.0750     2.2520 hc         1 2X9       0.072200
     37 H13         -5.6870    -0.7110    -1.5780 ha         1 2X9       0.165000
@<TRIPOS>BOND
     1     1     2 1   
     2     1    26 1   
     3     1    27 1   
     4     1    28 1   
     5     2     5 ar  
     6     2     8 ar  
     7     3     6 ar  
     8     3     7 ar  
     9     3    11 1   
    10     4    20 1   
    11     5     6 ar  
    12     5     9 1   
    13     6    29 1   
    14     7     8 ar  
    15     7    10 1   
    16     9    13 1   
    17     9    30 1   
    18     9    31 1   
    19    10    32 1   
    20    10    33 1   
    21    10    34 1   
    22    11    16 1   
    23    11    35 1   
    24    11    36 1   
    25    12    23 1   
    26    13    14 1   
    27    13    15 1   
    28    16    17 2   
    29    16    18 1   
    30    17    22 1   
    31    18    19 1   
    32    19    21 ar  
    33    19    22 ar  
    34    20    23 ar  
    35    20    24 ar  
    36    21    24 ar  
    37    21    25 1   
    38    22    23 ar  
    39    24    37 1   
@<TRIPOS>SUBSTRUCTURE
     1 2X9         1 TEMP              0 ****  ****    0 ROOT
