@<TRIPOS>MOLECULE
2X9
   37    39     1     0     0
SMALL
No Charge or Current Charge


@<TRIPOS>ATOM
      1 C1           4.8310     1.1020    -2.1500 c3         1 2X9      -0.141400
      2 C2           3.7030     0.9940    -1.1320 ca         1 2X9       0.377300
      3 C3           1.6240     0.9970     0.6930 ca         1 2X9      -0.162300
      4 F4          -5.7190    -2.6690     0.3320 f          1 2X9      -0.161000
      5 C5           3.2460    -0.2510    -0.6220 ca         1 2X9      -0.030300
      6 C6           2.1880    -0.2320     0.3060 ca         1 2X9      -0.076000
      7 C7           2.1460     2.1860     0.1260 ca         1 2X9       0.334300
      8 N8           3.1610     2.1790    -0.7650 nb         1 2X9      -0.699000
      9 C9           3.8500    -1.6020    -1.0280 c3         1 2X9      -0.192100
     10 C11          1.6060     3.5670     0.4740 c3         1 2X9      -0.134400
     11 C12          0.4650     0.9880     1.6960 c3         1 2X9      -0.046400
     12 F13         -3.5340    -2.5420     2.0390 f          1 2X9      -0.136000
     13 C20          4.9260    -2.0080    -0.0110 c          1 2X9       0.725000
     14 O23          6.0670    -1.6130    -0.1930 o          1 2X9      -0.723000
     15 O24          4.5690    -2.5970     0.9980 o          1 2X9      -0.723000
     16 C28         -0.8390     0.5320     1.0930 cc         1 2X9       0.429200
     17 N29         -1.5320    -0.5030     1.5930 nd         1 2X9      -0.523100
     18 S30         -1.4900     1.3730    -0.3330 ss         1 2X9       0.089800
     19 C32         -2.8140     0.2220    -0.2440 ca         1 2X9      -0.251000
     20 C33         -4.7660    -1.7260     0.1480 ca         1 2X9       0.143000
     21 C34         -3.9130     0.1680    -1.1130 ca         1 2X9       0.222000
     22 C35         -2.6720    -0.6680     0.8060 ca         1 2X9       0.107400
     23 C36         -3.6550    -1.6600     1.0160 ca         1 2X9       0.171000
     24 C37         -4.8970    -0.8130    -0.9160 ca         1 2X9      -0.178000
     25 F38         -4.0260     1.0490    -2.1300 f          1 2X9      -0.163000
     26 H1           5.7390     0.6100    -1.7870 hc         1 2X9       0.049700
     27 H2           4.5450     0.6340    -3.0990 hc         1 2X9       0.049700
     28 H3           5.0920     2.1450    -2.3650 hc         1 2X9       0.049700
     29 H4           1.8110    -1.1640     0.7220 ha         1 2X9       0.121000
     30 H5           3.0320    -2.3330    -1.0110 hc         1 2X9       0.036700
     31 H6           4.2920    -1.5000    -2.0240 hc         1 2X9       0.036700
     32 H7           1.7890     3.8020     1.5290 hc         1 2X9       0.035367
     33 H8           2.0770     4.3570    -0.1240 hc         1 2X9       0.035367
     34 H9           0.5260     3.6260     0.2960 hc         1 2X9       0.035367
     35 H10          0.7210     0.3270     2.5330 hc         1 2X9       0.072200
     36 H11          0.3130     1.9710     2.1550 hc         1 2X9       0.072200
     37 H13         -5.7540    -0.8670    -1.5820 ha         1 2X9       0.147000
@<TRIPOS>BOND
     1     1     2 1   
     2     1    26 1   
     3     1    27 1   
     4     1    28 1   
     5     2     5 ar  
     6     2     8 ar  
     7     3     6 ar  
     8     3     7 ar  
     9     3    11 1   
    10     4    20 1   
    11     5     6 ar  
    12     5     9 1   
    13     6    29 1   
    14     7     8 ar  
    15     7    10 1   
    16     9    13 1   
    17     9    30 1   
    18     9    31 1   
    19    10    32 1   
    20    10    33 1   
    21    10    34 1   
    22    11    16 1   
    23    11    35 1   
    24    11    36 1   
    25    12    23 1   
    26    13    14 1   
    27    13    15 1   
    28    16    17 2   
    29    16    18 1   
    30    17    22 1   
    31    18    19 1   
    32    19    21 ar  
    33    19    22 ar  
    34    20    23 ar  
    35    20    24 ar  
    36    21    24 ar  
    37    21    25 1   
    38    22    23 ar  
    39    24    37 1   
@<TRIPOS>SUBSTRUCTURE
     1 2X9         1 TEMP              0 ****  ****    0 ROOT
