@<TRIPOS>MOLECULE
2XA
   46    48     1     0     0
SMALL
No Charge or Current Charge


@<TRIPOS>ATOM
      1 N           14.0490    10.7820   -72.7290 n8         1 2XA      -0.996200
      2 CA          15.4200    10.9590   -72.1020 c3         1 2XA       0.014500
      3 CB          16.5470    11.0800   -73.1640 c3         1 2XA       0.104600
      4 C           15.5570    12.1550   -71.0810 c          1 2XA       0.698000
      5 OXT         15.3160    13.2880   -71.4780 o          1 2XA      -0.722500
      6 O           15.8060    11.8940   -69.9130 o          1 2XA      -0.722500
      7 SG          16.7680     9.5150   -74.1500 ss         1 2XA      -0.433000
      8 CAM         19.0060    12.3220   -75.0460 ca         1 2XA      -0.085000
      9 CAG         18.8670    13.5720   -75.6750 ca         1 2XA      -0.108500
     10 CAD         18.0810    13.6970   -76.8290 ca         1 2XA       0.121000
     11 CAH         17.4210    12.5760   -77.3500 ca         1 2XA      -0.108500
     12 CAN         17.5570    11.3250   -76.7230 ca         1 2XA      -0.085000
     13 CAV         18.3710    11.1700   -75.5760 ca         1 2XA      -0.067300
     14 CAF         18.3740     7.3130   -75.6230 ca         1 2XA      -0.095250
     15 CAL         18.6530     6.2720   -76.5250 ca         1 2XA      -0.118500
     16 CAR         19.3250     6.5410   -77.7260 ca         1 2XA      -0.118500
     17 CAX         19.7310     7.8510   -78.0180 ca         1 2XA      -0.118500
     18 CAQ         19.4540     8.8940   -77.1170 ca         1 2XA      -0.095250
     19 CAK         18.7480     8.6470   -75.9130 ca         1 2XA      -0.056800
     20 CAE         19.3880     9.2750   -72.5010 ca         1 2XA      -0.095250
     21 CAJ         20.4580     9.1890   -71.5930 ca         1 2XA      -0.118500
     22 CAP         21.7620     9.5030   -72.0030 ca         1 2XA      -0.118500
     23 CAW         21.9970     9.8950   -73.3290 ca         1 2XA      -0.118500
     24 CAO         20.9300     9.9810   -74.2380 ca         1 2XA      -0.095250
     25 CAI         19.6020     9.6940   -73.8390 ca         1 2XA      -0.056800
     26 CAZ         18.4660     9.7800   -74.8940 c3         1 2XA       0.222900
     27 HN1         13.3500    10.6730   -71.9850 hn         1 2XA       0.387500
     28 HN2         13.7780    11.6650   -73.1780 hn         1 2XA       0.387500
     29 HA          15.6250    10.0460   -71.5270 h1         1 2XA       0.046700
     30 HB1C        16.3320    11.9150   -73.8430 h1         1 2XA       0.065700
     31 HB2C        17.4900    11.3030   -72.6480 h1         1 2XA       0.065700
     32 HAG         19.3640    14.4460   -75.2620 ha         1 2XA       0.123500
     33 HAH         16.7990    12.6760   -78.2360 ha         1 2XA       0.123500
     34 HAN         17.0240    10.4690   -77.1320 ha         1 2XA       0.131000
     35 HAF         17.8730     7.0720   -74.6900 ha         1 2XA       0.127500
     36 HAL         18.3520     5.2540   -76.2880 ha         1 2XA       0.105500
     37 HAR         19.5430     5.7340   -78.4230 ha         1 2XA       0.101500
     38 HAX         20.2670     8.0600   -78.9410 ha         1 2XA       0.105500
     39 HAQ         19.8000     9.8950   -77.3630 ha         1 2XA       0.127500
     40 HAE         18.4010     9.0020   -72.1420 ha         1 2XA       0.127500
     41 HAJ         20.2750     8.8720   -70.5690 ha         1 2XA       0.105500
     42 HAP         22.5880     9.4350   -71.2990 ha         1 2XA       0.101500
     43 HAW         23.0080    10.1290   -73.6550 ha         1 2XA       0.105500
     44 HAO         21.1370    10.2810   -75.2620 ha         1 2XA       0.127500
     45 Cl          17.9080    15.2630   -77.6100 cl         1 2XA      -0.226000
     46 HAM         19.6000    12.2680   -74.1380 ha         1 2XA       0.131000
@<TRIPOS>BOND
     1     1     2 1   
     2     1    27 1   
     3     1    28 1   
     4     2     3 1   
     5     2     4 1   
     6     2    29 1   
     7     3     7 1   
     8     3    30 1   
     9     3    31 1   
    10     4     5 1   
    11     4     6 1   
    12     7    26 1   
    13     8     9 ar  
    14     8    13 ar  
    15     8    46 1   
    16     9    10 ar  
    17     9    32 1   
    18    10    11 ar  
    19    10    45 1   
    20    11    12 ar  
    21    11    33 1   
    22    12    13 ar  
    23    12    34 1   
    24    13    26 1   
    25    14    15 ar  
    26    14    19 ar  
    27    14    35 1   
    28    15    16 ar  
    29    15    36 1   
    30    16    17 ar  
    31    16    37 1   
    32    17    18 ar  
    33    17    38 1   
    34    18    19 ar  
    35    18    39 1   
    36    19    26 1   
    37    20    21 ar  
    38    20    25 ar  
    39    20    40 1   
    40    21    22 ar  
    41    21    41 1   
    42    22    23 ar  
    43    22    42 1   
    44    23    24 ar  
    45    23    43 1   
    46    24    25 ar  
    47    24    44 1   
    48    25    26 1   
@<TRIPOS>SUBSTRUCTURE
     1 2XA         1 TEMP              0 ****  ****    0 ROOT
