@<TRIPOS>MOLECULE
2XA
   46    48     1     0     0
SMALL
abcg2


@<TRIPOS>ATOM
      1 N           14.2850    10.3180   -72.8550 n8         1 2XA      -0.996200
      2 CA          15.4340    10.9010   -72.1850 c3         1 2XA       0.014500
      3 CB          16.5490    11.1300   -73.2000 c3         1 2XA       0.104600
      4 C           15.1840    12.2400   -71.4330 c          1 2XA       0.698000
      5 OXT         14.1180    12.8350   -71.6750 o          1 2XA      -0.722500
      6 O           16.0980    12.6050   -70.6670 o          1 2XA      -0.722500
      7 SG          16.8170     9.5920   -74.1360 ss         1 2XA      -0.433000
      8 CAM         19.1960    12.3130   -75.0070 ca         1 2XA      -0.085000
      9 CAG         19.0910    13.5810   -75.5680 ca         1 2XA      -0.108500
     10 CAD         18.2430    13.7780   -76.6400 ca         1 2XA       0.121000
     11 CAH         17.4890    12.7290   -77.1480 ca         1 2XA      -0.108500
     12 CAN         17.5990    11.4780   -76.5700 ca         1 2XA      -0.085000
     13 CAV         18.4670    11.2390   -75.5010 ca         1 2XA      -0.067300
     14 CAF         18.3980     7.4140   -75.4870 ca         1 2XA      -0.095250
     15 CAL         18.6270     6.3520   -76.3470 ca         1 2XA      -0.118500
     16 CAR         19.1710     6.5750   -77.6060 ca         1 2XA      -0.118500
     17 CAX         19.4870     7.8700   -77.9860 ca         1 2XA      -0.118500
     18 CAQ         19.2500     8.9350   -77.1250 ca         1 2XA      -0.095250
     19 CAK         18.6920     8.7240   -75.8670 ca         1 2XA      -0.056800
     20 CAE         19.4260     9.4260   -72.4950 ca         1 2XA      -0.095250
     21 CAJ         20.5020     9.2700   -71.6250 ca         1 2XA      -0.118500
     22 CAP         21.8020     9.3940   -72.0860 ca         1 2XA      -0.118500
     23 CAW         22.0210     9.6740   -73.4300 ca         1 2XA      -0.118500
     24 CAO         20.9500     9.8280   -74.2930 ca         1 2XA      -0.095250
     25 CAI         19.6330     9.7120   -73.8380 ca         1 2XA      -0.056800
     26 CAZ         18.5010     9.8590   -74.8570 c3         1 2XA       0.222900
     27 HN1         13.5940    10.0650   -72.1590 hn         1 2XA       0.387500
     28 HN2         13.8400    11.0400   -73.4100 hn         1 2XA       0.387500
     29 HA          15.7970    10.1690   -71.4560 h1         1 2XA       0.046700
     30 HB1C        16.2800    11.9280   -73.8970 h1         1 2XA       0.065700
     31 HB2C        17.4670    11.4220   -72.6930 h1         1 2XA       0.065700
     32 HAG         19.6690    14.4010   -75.1620 ha         1 2XA       0.123500
     33 HAH         16.8150    12.8860   -77.9800 ha         1 2XA       0.123500
     34 HAN         16.9880    10.6730   -76.9590 ha         1 2XA       0.131000
     35 HAF         17.9960     7.2110   -74.5020 ha         1 2XA       0.127500
     36 HAL         18.3850     5.3460   -76.0290 ha         1 2XA       0.105500
     37 HAR         19.3520     5.7470   -78.2790 ha         1 2XA       0.101500
     38 HAX         19.9220     8.0600   -78.9590 ha         1 2XA       0.105500
     39 HAQ         19.5170     9.9330   -77.4460 ha         1 2XA       0.127500
     40 HAE         18.4200     9.3050   -72.1160 ha         1 2XA       0.127500
     41 HAJ         20.3130     9.0480   -70.5820 ha         1 2XA       0.105500
     42 HAP         22.6370     9.2700   -71.4090 ha         1 2XA       0.101500
     43 HAW         23.0310     9.7700   -73.8080 ha         1 2XA       0.105500
     44 HAO         21.1430    10.0420   -75.3370 ha         1 2XA       0.127500
     45 CL          18.1080    15.3520   -77.3530 cl         1 2XA      -0.226000
     46 HAM         19.8610    12.1870   -74.1640 ha         1 2XA       0.131000
@<TRIPOS>BOND
     1     1     2 1   
     2     1    27 1   
     3     1    28 1   
     4     2     3 1   
     5     2     4 1   
     6     2    29 1   
     7     3     7 1   
     8     3    30 1   
     9     3    31 1   
    10     4     5 1   
    11     4     6 1   
    12     7    26 1   
    13     8     9 ar  
    14     8    13 ar  
    15     8    46 1   
    16     9    10 ar  
    17     9    32 1   
    18    10    11 ar  
    19    10    45 1   
    20    11    12 ar  
    21    11    33 1   
    22    12    13 ar  
    23    12    34 1   
    24    13    26 1   
    25    14    15 ar  
    26    14    19 ar  
    27    14    35 1   
    28    15    16 ar  
    29    15    36 1   
    30    16    17 ar  
    31    16    37 1   
    32    17    18 ar  
    33    17    38 1   
    34    18    19 ar  
    35    18    39 1   
    36    19    26 1   
    37    20    21 ar  
    38    20    25 ar  
    39    20    40 1   
    40    21    22 ar  
    41    21    41 1   
    42    22    23 ar  
    43    22    42 1   
    44    23    24 ar  
    45    23    43 1   
    46    24    25 ar  
    47    24    44 1   
    48    25    26 1   
@<TRIPOS>SUBSTRUCTURE
     1 2XA         1 TEMP              0 ****  ****    0 ROOT
