@<TRIPOS>MOLECULE
2XB
   47    49     1     0     0
SMALL
No Charge or Current Charge


@<TRIPOS>ATOM
      1 OE1          5.4990    -1.9410     3.6560 o          1 2XB      -0.760500
      2 CT4          4.4480    -1.9560     3.0350 c          1 2XB       0.712000
      3 OE2          3.6690    -2.8970     3.0520 o          1 2XB      -0.760500
      4 CT3          4.1170    -0.7520     2.1320 c3         1 2XB      -0.202400
      5 CT2          4.7030    -0.9730     0.7130 c3         1 2XB      -0.055400
      6 CT1          4.5330     0.2290    -0.2550 c3         1 2XB      -0.051300
      7 CT5          5.2800    -0.0220    -1.6010 c          1 2XB       0.719000
      8 OT1          4.7750    -0.7850    -2.4150 o          1 2XB      -0.741500
      9 OXT          6.2930     0.6240    -1.8300 o          1 2XB      -0.741500
     10 NT1          3.1070     0.5420    -0.5180 ns         1 2XB      -0.416900
     11 CAV          2.3640     1.5210     0.1160 c          1 2XB       0.592700
     12 OAD          2.8620     2.2600     0.9570 o          1 2XB      -0.633100
     13 CAY          0.9050     1.6360    -0.2920 ca         1 2XB      -0.097600
     14 CAJ          0.3190     0.7810    -1.2570 ca         1 2XB      -0.075000
     15 CAH         -1.0350     0.9220    -1.6090 ca         1 2XB      -0.130500
     16 CAK          0.0950     2.6300     0.3030 ca         1 2XB      -0.075000
     17 CAI         -1.2580     2.7660    -0.0520 ca         1 2XB      -0.130500
     18 CAX         -1.8350     1.9100    -1.0070 ca         1 2XB      -0.131300
     19 CAO         -3.3060     2.0600    -1.3820 c3         1 2XB       0.036100
     20 CAZ         -4.0340     0.7490    -1.5650 cc         1 2XB      -0.066400
     21 CBC         -4.2050    -0.3230    -0.6150 ca         1 2XB      -0.313800
     22 CBA         -3.7450    -0.5000     0.6970 ca         1 2XB       0.457300
     23 OAE         -2.9530     0.4180     1.2960 oh         1 2XB      -0.630300
     24 NAS         -4.0640    -1.6030     1.3940 nb         1 2XB      -0.303000
     25 CAW         -4.8280    -2.4940     0.7450 ca         1 2XB       0.418900
     26 NAA         -5.1540    -3.6110     1.4340 nv         1 2XB      -1.054900
     27 NAP         -5.3030    -2.4190    -0.5090 nb         1 2XB      -0.310000
     28 CBB         -4.9740    -1.3050    -1.1870 ca         1 2XB       0.188500
     29 NAR         -5.2990    -0.9310    -2.4740 na         1 2XB      -0.328400
     30 CAL         -4.7150     0.3380    -2.7010 cd         1 2XB      -0.198100
     31 H2           3.0310    -0.6600     2.0040 hc         1 2XB       0.009700
     32 H3           5.7740    -1.1900     0.8060 hc         1 2XB       0.050200
     33 H4           5.0040     1.1070     0.2050 h1         1 2XB       0.057700
     34 H6           2.6330    -0.0050    -1.2240 hn         1 2XB       0.298500
     35 H7           0.8950     0.0010    -1.7470 ha         1 2XB       0.138000
     36 H8          -1.4610     0.2550    -2.3560 ha         1 2XB       0.101500
     37 H9           0.5140     3.3050     1.0460 ha         1 2XB       0.138000
     38 H10         -1.8550     3.5440     0.4190 ha         1 2XB       0.101500
     39 H11         -3.8350     2.6500    -0.6230 hc         1 2XB       0.046200
     40 H12         -3.3770     2.6430    -2.3080 hc         1 2XB       0.046200
     41 H14         -4.6370    -3.8190     2.2850 hn         1 2XB       0.482500
     42 H15         -5.5300    -4.4040     0.9200 hn         1 2XB       0.482500
     43 H16         -5.8570    -1.4730    -3.1260 hn         1 2XB       0.352000
     44 H17         -4.8340     0.8630    -3.6470 h4         1 2XB       0.211000
     45 H18          4.5960     0.1570     2.5150 hc         1 2XB       0.009700
     46 H19          4.2440    -1.8650     0.2670 hc         1 2XB       0.050200
     47 H20         -2.6340     0.9930     0.5680 ho         1 2XB       0.506000
@<TRIPOS>BOND
     1     1     2 1   
     2     2     3 1   
     3     2     4 1   
     4     4     5 1   
     5     4    31 1   
     6     4    45 1   
     7     5     6 1   
     8     5    32 1   
     9     5    46 1   
    10     6     7 1   
    11     6    10 1   
    12     6    33 1   
    13     7     8 1   
    14     7     9 1   
    15    10    11 1   
    16    10    34 1   
    17    11    12 2   
    18    11    13 1   
    19    13    14 ar  
    20    13    16 ar  
    21    14    15 ar  
    22    14    35 1   
    23    15    18 ar  
    24    15    36 1   
    25    16    17 ar  
    26    16    37 1   
    27    17    18 ar  
    28    17    38 1   
    29    18    19 1   
    30    19    20 1   
    31    19    39 1   
    32    19    40 1   
    33    20    21 1   
    34    20    30 2   
    35    21    22 ar  
    36    21    28 ar  
    37    22    23 1   
    38    22    24 ar  
    39    23    47 1   
    40    24    25 ar  
    41    25    26 1   
    42    25    27 ar  
    43    26    41 1   
    44    26    42 1   
    45    27    28 ar  
    46    28    29 1   
    47    29    30 1   
    48    29    43 1   
    49    30    44 1   
@<TRIPOS>SUBSTRUCTURE
     1 2XB         1 TEMP              0 ****  ****    0 ROOT
