@<TRIPOS>MOLECULE
2XB
   47    49     1     0     0
SMALL
abcg2


@<TRIPOS>ATOM
      1 OE1          4.4360    -4.2070     1.4000 o          1 2XB      -0.760500
      2 CT4          5.0010    -3.2620     0.8100 c          1 2XB       0.712000
      3 OE2          6.0010    -3.3470     0.0700 o          1 2XB      -0.760500
      4 CT3          4.3850    -1.8690     1.0330 c3         1 2XB      -0.202400
      5 CT2          5.0740    -0.7190     0.3170 c3         1 2XB      -0.055400
      6 CT1          4.4310     0.6410     0.5890 c3         1 2XB      -0.051300
      7 CT5          5.2930     1.7840    -0.0090 c          1 2XB       0.719000
      8 OT1          4.8530     2.3800    -1.0070 o          1 2XB      -0.741500
      9 OXT          6.3800     1.9790     0.5710 o          1 2XB      -0.741500
     10 NT1          3.0760     0.6440     0.0840 ns         1 2XB      -0.416900
     11 CAV          2.1790     1.5680     0.4500 c          1 2XB       0.592700
     12 OAD          2.3940     2.4090     1.3160 o          1 2XB      -0.633100
     13 CAY          0.8530     1.5040    -0.2410 ca         1 2XB      -0.097600
     14 CAJ          0.3350     0.3200    -0.7650 ca         1 2XB      -0.075000
     15 CAH         -0.9130     0.3000    -1.3650 ca         1 2XB      -0.130500
     16 CAK          0.0900     2.6630    -0.3240 ca         1 2XB      -0.075000
     17 CAI         -1.1520     2.6440    -0.9420 ca         1 2XB      -0.130500
     18 CAX         -1.6730     1.4640    -1.4710 ca         1 2XB      -0.131300
     19 CAO         -3.0280     1.4570    -2.1360 c3         1 2XB       0.036100
     20 CAZ         -3.8700     0.2720    -1.7940 cc         1 2XB      -0.066400
     21 CBC         -4.2750    -0.1910    -0.4920 ca         1 2XB      -0.313800
     22 CBA         -4.0680     0.1310     0.8560 ca         1 2XB       0.457300
     23 OAE         -3.2860     1.1230     1.2750 oh         1 2XB      -0.630300
     24 NAS         -4.6510    -0.5460     1.8180 nb         1 2XB      -0.303000
     25 CAW         -5.4440    -1.5830     1.4920 ca         1 2XB       0.418900
     26 NAA         -6.0590    -2.2060     2.5260 nv         1 2XB      -1.054900
     27 NAP         -5.6980    -2.0230     0.2670 nb         1 2XB      -0.310000
     28 CBB         -5.1050    -1.3100    -0.6840 ca         1 2XB       0.188500
     29 NAR         -5.1940    -1.5280    -2.0130 na         1 2XB      -0.328400
     30 CAL         -4.4510    -0.5790    -2.6820 cd         1 2XB      -0.198100
     31 H2           3.3280    -1.9200     0.7470 hc         1 2XB       0.009700
     32 H3           6.1170    -0.6600     0.6290 hc         1 2XB       0.050200
     33 H4           4.3840     0.7880     1.6720 h1         1 2XB       0.057700
     34 H6           2.9140     0.1460    -0.7770 hn         1 2XB       0.298500
     35 H7           0.8860    -0.6080    -0.6820 ha         1 2XB       0.138000
     36 H8          -1.3060    -0.6350    -1.7460 ha         1 2XB       0.101500
     37 H9           0.4660     3.5880     0.0890 ha         1 2XB       0.138000
     38 H10         -1.7290     3.5590    -1.0100 ha         1 2XB       0.101500
     39 H11         -3.5500     2.3830    -1.8740 hc         1 2XB       0.046200
     40 H12         -2.8930     1.4910    -3.2210 hc         1 2XB       0.046200
     41 H14         -5.6770    -2.0700     3.4460 hn         1 2XB       0.482500
     42 H15         -6.4650    -3.1090     2.3510 hn         1 2XB       0.482500
     43 H16         -5.7190    -2.2700    -2.4460 hn         1 2XB       0.352000
     44 H17         -4.4000    -0.5820    -3.7590 h4         1 2XB       0.211000
     45 H18          4.3740    -1.6720     2.1110 hc         1 2XB       0.009700
     46 H19          5.0910    -0.9000    -0.7630 hc         1 2XB       0.050200
     47 H20         -2.8050     1.5350     0.5460 ho         1 2XB       0.506000
@<TRIPOS>BOND
     1     1     2 1   
     2     2     3 1   
     3     2     4 1   
     4     4     5 1   
     5     4    31 1   
     6     4    45 1   
     7     5     6 1   
     8     5    32 1   
     9     5    46 1   
    10     6     7 1   
    11     6    10 1   
    12     6    33 1   
    13     7     8 1   
    14     7     9 1   
    15    10    11 1   
    16    10    34 1   
    17    11    12 2   
    18    11    13 1   
    19    13    14 ar  
    20    13    16 ar  
    21    14    15 ar  
    22    14    35 1   
    23    15    18 ar  
    24    15    36 1   
    25    16    17 ar  
    26    16    37 1   
    27    17    18 ar  
    28    17    38 1   
    29    18    19 1   
    30    19    20 1   
    31    19    39 1   
    32    19    40 1   
    33    20    21 1   
    34    20    30 2   
    35    21    22 ar  
    36    21    28 ar  
    37    22    23 1   
    38    22    24 ar  
    39    23    47 1   
    40    24    25 ar  
    41    25    26 1   
    42    25    27 ar  
    43    26    41 1   
    44    26    42 1   
    45    27    28 ar  
    46    28    29 1   
    47    29    30 1   
    48    29    43 1   
    49    30    44 1   
@<TRIPOS>SUBSTRUCTURE
     1 2XB         1 TEMP              0 ****  ****    0 ROOT
