@<TRIPOS>MOLECULE
2XC
   44    46     1     0     0
SMALL
abcg2


@<TRIPOS>ATOM
      1 CAS         -4.8350    -1.0380    -1.2440 ca         1 2XC      -0.103500
      2 CAT         -6.0740    -1.6530    -1.1210 ca         1 2XC      -0.108000
      3 CAU         -6.8560    -1.4230     0.0030 ca         1 2XC      -0.105000
      4 CAV         -6.3890    -0.5740     0.9980 ca         1 2XC      -0.108000
      5 CAW         -5.1520     0.0420     0.8690 ca         1 2XC      -0.103500
      6 CAR         -4.3570    -0.1810    -0.2560 ca         1 2XC      -0.085300
      7 CAP         -3.0110     0.4770    -0.4090 c6         1 2XC      -0.035400
      8 CAQ         -2.0470     0.0040     0.6850 c6         1 2XC       0.220800
      9 CAO         -3.0900     2.0060    -0.4050 c6         1 2XC      -0.070400
     10 CAN         -1.7000     2.6190    -0.5220 c6         1 2XC      -0.098400
     11 CAM         -0.7780     2.0880     0.5680 c6         1 2XC       0.209800
     12 NAL         -0.7460     0.6350     0.5380 nh         1 2XC      -0.660400
     13 CAK          0.3510    -0.0850     0.3620 c2         1 2XC       0.149000
     14 CAI          1.6440     0.3530     0.2040 ce         1 2XC      -0.477200
     15 CAH          2.6900    -0.6050     0.0480 c          1 2XC       0.629900
     16 OAJ          2.4630    -1.8380     0.0290 o          1 2XC      -0.643100
     17 CAE          4.0980    -0.1550    -0.0890 ca         1 2XC      -0.280600
     18 CAD          4.4710     1.1950    -0.1030 ca         1 2XC      -0.023000
     19 CAC          5.7880     1.5870    -0.2250 ca         1 2XC      -0.185000
     20 CAB          6.7800     0.6150    -0.3370 ca         1 2XC      -0.041000
     21 CAA          6.4520    -0.7250    -0.3280 ca         1 2XC      -0.186000
     22 CAF          5.1180    -1.1270    -0.2070 ca         1 2XC       0.221100
     23 OAG          4.8540    -2.4310    -0.2040 oh         1 2XC      -0.568100
     24 H1          -4.2300    -1.2240    -2.1240 ha         1 2XC       0.111500
     25 H2          -6.4280    -2.3120    -1.9030 ha         1 2XC       0.115000
     26 H3          -7.8220    -1.9010     0.1040 ha         1 2XC       0.115000
     27 H4          -6.9920    -0.3880     1.8780 ha         1 2XC       0.115000
     28 H5          -4.8100     0.7040     1.6560 ha         1 2XC       0.111500
     29 H6          -2.5880     0.1630    -1.3690 hc         1 2XC       0.062700
     30 H7          -2.4470     0.2540     1.6730 h1         1 2XC       0.058700
     31 H8          -1.9230    -1.0780     0.6450 h1         1 2XC       0.058700
     32 H9          -3.7250     2.3450    -1.2260 hc         1 2XC       0.049700
     33 H10         -3.5600     2.3500     0.5220 hc         1 2XC       0.049700
     34 H11         -1.2700     2.3920    -1.5010 hc         1 2XC       0.054700
     35 H12         -1.7540     3.7060    -0.4380 hc         1 2XC       0.054700
     36 H13          0.2270     2.4840     0.4520 h1         1 2XC       0.056700
     37 H14         -1.1410     2.4020     1.5510 h1         1 2XC       0.056700
     38 H15          0.1780    -1.1550     0.3550 h4         1 2XC       0.206000
     39 H16          1.8740     1.4060     0.2070 ha         1 2XC       0.186000
     40 H17          3.7160     1.9650    -0.0200 ha         1 2XC       0.106000
     41 H18          6.0430     2.6380    -0.2350 ha         1 2XC       0.113000
     42 H19          7.8190     0.9070    -0.4340 ha         1 2XC       0.111000
     43 H20          7.2210    -1.4840    -0.4150 ha         1 2XC       0.128000
     44 H21          3.8590    -2.4990    -0.1160 ho         1 2XC       0.527000
@<TRIPOS>BOND
     1     1     2 ar  
     2     1     6 ar  
     3     1    24 1   
     4     2     3 ar  
     5     2    25 1   
     6     3     4 ar  
     7     3    26 1   
     8     4     5 ar  
     9     4    27 1   
    10     5     6 ar  
    11     5    28 1   
    12     6     7 1   
    13     7     8 1   
    14     7     9 1   
    15     7    29 1   
    16     8    12 1   
    17     8    30 1   
    18     8    31 1   
    19     9    10 1   
    20     9    32 1   
    21     9    33 1   
    22    10    11 1   
    23    10    34 1   
    24    10    35 1   
    25    11    12 1   
    26    11    36 1   
    27    11    37 1   
    28    12    13 1   
    29    13    14 2   
    30    13    38 1   
    31    14    15 1   
    32    14    39 1   
    33    15    16 2   
    34    15    17 1   
    35    17    18 ar  
    36    17    22 ar  
    37    18    19 ar  
    38    18    40 1   
    39    19    20 ar  
    40    19    41 1   
    41    20    21 ar  
    42    20    42 1   
    43    21    22 ar  
    44    21    43 1   
    45    22    23 1   
    46    23    44 1   
@<TRIPOS>SUBSTRUCTURE
     1 2XC         1 TEMP              0 ****  ****    0 ROOT
