@<TRIPOS>MOLECULE
2XC
   44    46     1     0     0
SMALL
No Charge or Current Charge


@<TRIPOS>ATOM
      1 CAS         -4.5410    -1.2050    -1.1980 ca         1 2XC      -0.103500
      2 CAT         -5.8520    -1.7040    -1.2850 ca         1 2XC      -0.108000
      3 CAU         -6.8500    -1.2140    -0.4270 ca         1 2XC      -0.105000
      4 CAV         -6.5360    -0.2250     0.5190 ca         1 2XC      -0.108000
      5 CAW         -5.2250     0.2750     0.6080 ca         1 2XC      -0.103500
      6 CAR         -4.2160    -0.2120    -0.2500 ca         1 2XC      -0.085300
      7 CAP         -2.7790     0.3250    -0.1610 c6         1 2XC      -0.035400
      8 CAQ         -2.1540     0.0900     1.2460 c6         1 2XC       0.220800
      9 CAO         -2.7010     1.8330    -0.5360 c6         1 2XC      -0.070400
     10 CAN         -1.2570     2.3760    -0.3710 c6         1 2XC      -0.098400
     11 CAM         -0.7060     2.0600     1.0420 c6         1 2XC       0.209800
     12 NAL         -0.7500     0.5890     1.2830 nh         1 2XC      -0.660400
     13 CAK          0.2670    -0.2370     0.8080 c2         1 2XC       0.149000
     14 CAI          1.5770     0.0540     0.9220 ce         1 2XC      -0.477200
     15 CAH          2.6390    -0.8140     0.3590 c          1 2XC       0.629900
     16 OAJ          2.4120    -2.0060     0.1860 o          1 2XC      -0.643100
     17 CAE          3.9480    -0.2160    -0.1040 ca         1 2XC      -0.280600
     18 CAD          4.1100     1.1850    -0.2350 ca         1 2XC      -0.023000
     19 CAC          5.3360     1.7260    -0.6580 ca         1 2XC      -0.185000
     20 CAB          6.4160     0.8860    -0.9620 ca         1 2XC      -0.041000
     21 CAA          6.2620    -0.5040    -0.8510 ca         1 2XC      -0.186000
     22 CAF          5.0410    -1.0500    -0.4320 ca         1 2XC       0.221100
     23 OAG          4.9250    -2.4010    -0.3500 oh         1 2XC      -0.568100
     24 H1          -3.7780    -1.5930    -1.8690 ha         1 2XC       0.111500
     25 H2          -6.0940    -2.4700    -2.0190 ha         1 2XC       0.115000
     26 H3          -7.8650    -1.6000    -0.4950 ha         1 2XC       0.115000
     27 H4          -7.3080     0.1560     1.1840 ha         1 2XC       0.115000
     28 H5          -4.9990     1.0420     1.3440 ha         1 2XC       0.111500
     29 H6          -2.1630    -0.2250    -0.8860 hc         1 2XC       0.062700
     30 H7          -2.7550     0.6210     1.9980 h1         1 2XC       0.058700
     31 H8          -2.1940    -0.9790     1.5040 h1         1 2XC       0.058700
     32 H9          -3.0410     1.9810    -1.5700 hc         1 2XC       0.049700
     33 H10         -3.3800     2.4150     0.1010 hc         1 2XC       0.049700
     34 H11         -0.6000     1.9300    -1.1300 hc         1 2XC       0.054700
     35 H12         -1.2420     3.4600    -0.5410 hc         1 2XC       0.054700
     36 H13          0.3110     2.4620     1.1510 h1         1 2XC       0.056700
     37 H14         -1.3310     2.5780     1.7860 h1         1 2XC       0.056700
     38 H15         -0.0670    -1.1710     0.3420 h4         1 2XC       0.206000
     39 H16          1.9020     0.9860     1.3700 ha         1 2XC       0.186000
     40 H17          3.2920     1.8700    -0.0280 ha         1 2XC       0.106000
     41 H18          5.4460     2.8040    -0.7540 ha         1 2XC       0.113000
     42 H19          7.3640     1.3080    -1.2900 ha         1 2XC       0.111000
     43 H20          7.0930    -1.1610    -1.0940 ha         1 2XC       0.128000
     44 H21          3.9660    -2.5640    -0.1420 ho         1 2XC       0.527000
@<TRIPOS>BOND
     1     1     2 ar  
     2     1     6 ar  
     3     1    24 1   
     4     2     3 ar  
     5     2    25 1   
     6     3     4 ar  
     7     3    26 1   
     8     4     5 ar  
     9     4    27 1   
    10     5     6 ar  
    11     5    28 1   
    12     6     7 1   
    13     7     8 1   
    14     7     9 1   
    15     7    29 1   
    16     8    12 1   
    17     8    30 1   
    18     8    31 1   
    19     9    10 1   
    20     9    32 1   
    21     9    33 1   
    22    10    11 1   
    23    10    34 1   
    24    10    35 1   
    25    11    12 1   
    26    11    36 1   
    27    11    37 1   
    28    12    13 1   
    29    13    14 2   
    30    13    38 1   
    31    14    15 1   
    32    14    39 1   
    33    15    16 2   
    34    15    17 1   
    35    17    18 ar  
    36    17    22 ar  
    37    18    19 ar  
    38    18    40 1   
    39    19    20 ar  
    40    19    41 1   
    41    20    21 ar  
    42    20    42 1   
    43    21    22 ar  
    44    21    43 1   
    45    22    23 1   
    46    23    44 1   
@<TRIPOS>SUBSTRUCTURE
     1 2XC         1 TEMP              0 ****  ****    0 ROOT
