@<TRIPOS>MOLECULE
2XD
   35    37     1     0     0
SMALL
bcc


@<TRIPOS>ATOM
      1 C4           2.9640     1.5160    -0.3550 ca         1 2XD      -0.040000
      2 C14         -2.2300     0.5410    -0.8470 c6         1 2XD       0.190500
      3 C5           3.0650     0.1420    -0.1010 ca         1 2XD      -0.280600
      4 C6           1.8910    -0.7650    -0.0970 c          1 2XD       0.629900
      5 C11         -4.2930    -0.3080     0.4070 cc         1 2XD      -0.262600
      6 C7           0.5880    -0.2500    -0.3770 ce         1 2XD      -0.424200
      7 C8          -0.4860    -1.1030    -0.3840 c2         1 2XD       0.197000
      8 C9          -2.7650    -1.8720    -0.6720 c6         1 2XD       0.221800
      9 C10         -3.8190    -1.7210     0.4200 c6         1 2XD      -0.006100
     10 C12         -5.4250     0.3170     0.8810 cd         1 2XD      -0.122300
     11 C13         -3.5560     0.7290    -0.1850 cc         1 2XD       0.291600
     12 N1          -5.2980     1.6150     0.5590 na         1 2XD       0.001400
     13 N2          -4.1720     1.8920    -0.0890 nd         1 2XD      -0.505800
     14 C3           4.0710     2.3400    -0.3550 ca         1 2XD      -0.202000
     15 O1           2.0830    -1.9770     0.1530 o          1 2XD      -0.642100
     16 C2           5.3270     1.7940    -0.0950 ca         1 2XD      -0.059000
     17 C1           5.4650     0.4450     0.1620 ca         1 2XD      -0.204000
     18 C            4.3460    -0.3940     0.1640 ca         1 2XD       0.221100
     19 O            4.5320    -1.6860     0.4190 oh         1 2XD      -0.527100
     20 N           -1.7630    -0.8140    -0.5930 nh         1 2XD      -0.663400
     21 H1           2.0000     1.9590    -0.5600 ha         1 2XD       0.126000
     22 H3          -1.5090     1.2550    -0.4510 h1         1 2XD       0.070700
     23 H4           0.4620     0.7990    -0.5930 ha         1 2XD       0.138000
     24 H5          -0.2990    -2.1550    -0.1990 h4         1 2XD       0.155000
     25 H6          -2.2590    -2.8330    -0.5960 h1         1 2XD       0.056700
     26 H7          -3.2400    -1.8300    -1.6560 h1         1 2XD       0.056700
     27 H8          -3.3870    -1.9870     1.3890 hc         1 2XD       0.058700
     28 H9          -4.6320    -2.4250     0.2310 hc         1 2XD       0.058700
     29 H10         -6.2870    -0.0590     1.4070 h4         1 2XD       0.176000
     30 H11         -5.9510     2.3540     0.7640 hn         1 2XD       0.325700
     31 H12          3.9620     3.3980    -0.5530 ha         1 2XD       0.132000
     32 H13          6.2030     2.4290    -0.0930 ha         1 2XD       0.129000
     33 H14          6.4390     0.0190     0.3680 ha         1 2XD       0.146000
     34 H15          3.6220    -2.0970     0.3780 ho         1 2XD       0.487000
     35 H2          -2.2960     0.7130    -1.9270 h1         1 2XD       0.070700
@<TRIPOS>BOND
     1     1     3 ar  
     2     1    14 ar  
     3     1    21 1   
     4     2    11 1   
     5     2    20 1   
     6     2    22 1   
     7     2    35 1   
     8     3     4 1   
     9     3    18 ar  
    10     4     6 1   
    11     4    15 2   
    12     5     9 1   
    13     5    10 2   
    14     5    11 1   
    15     6     7 2   
    16     6    23 1   
    17     7    20 1   
    18     7    24 1   
    19     8     9 1   
    20     8    20 1   
    21     8    25 1   
    22     8    26 1   
    23     9    27 1   
    24     9    28 1   
    25    10    12 1   
    26    10    29 1   
    27    11    13 2   
    28    12    13 1   
    29    12    30 1   
    30    14    16 ar  
    31    14    31 1   
    32    16    17 ar  
    33    16    32 1   
    34    17    18 ar  
    35    17    33 1   
    36    18    19 1   
    37    19    34 1   
@<TRIPOS>SUBSTRUCTURE
     1 2XD         1 TEMP              0 ****  ****    0 ROOT
