@<TRIPOS>MOLECULE
2XD
   35    37     1     0     0
SMALL
No Charge or Current Charge


@<TRIPOS>ATOM
      1 C4           2.9750     1.3000     0.3470 ca         1 2XD      -0.022000
      2 C14         -2.1770     0.4550    -0.5760 c6         1 2XD       0.190500
      3 C5           3.2060     0.0610    -0.2980 ca         1 2XD      -0.280600
      4 C6           2.0670    -0.8770    -0.6290 c          1 2XD       0.629900
      5 C11         -4.4810    -0.0930     0.2990 cc         1 2XD      -0.197300
      6 C7           0.6610    -0.4190    -0.5160 ce         1 2XD      -0.474200
      7 C8          -0.3480    -1.2560    -0.2030 c2         1 2XD       0.147000
      8 C9          -2.7310    -1.8820     0.2380 c6         1 2XD       0.221800
      9 C10         -3.9440    -1.3050     1.0110 c6         1 2XD      -0.006100
     10 C12         -5.7520     0.3850     0.2320 cd         1 2XD      -0.155000
     11 C13         -3.6660     0.7570    -0.4590 cc         1 2XD       0.226300
     12 N1          -5.6430     1.5280    -0.5750 na         1 2XD       0.001800
     13 N2          -4.3320     1.7570    -1.0070 nd         1 2XD      -0.505800
     14 C3           4.0430     2.1650     0.6390 ca         1 2XD      -0.184000
     15 O1           2.2970    -2.0500    -0.9040 o          1 2XD      -0.642100
     16 C2           5.3570     1.8110     0.3000 ca         1 2XD      -0.041000
     17 C1           5.6000     0.5800    -0.3260 ca         1 2XD      -0.186000
     18 C            4.5390    -0.2880    -0.6170 ca         1 2XD       0.221100
     19 O            4.8160    -1.4790    -1.2110 oh         1 2XD      -0.566100
     20 N           -1.6720    -0.8560    -0.0280 nh         1 2XD      -0.663400
     21 H1           1.9750     1.6040     0.6450 ha         1 2XD       0.108000
     22 H3          -1.6360     1.2750    -0.0830 h1         1 2XD       0.070700
     23 H4           0.4970     0.6480    -0.6060 ha         1 2XD       0.188000
     24 H5          -0.1650    -2.3270    -0.0590 h4         1 2XD       0.205000
     25 H6          -2.3140    -2.7040     0.8380 h1         1 2XD       0.056700
     26 H7          -3.0720    -2.3200    -0.7110 h1         1 2XD       0.056700
     27 H8          -3.6330    -1.0390     2.0310 hc         1 2XD       0.058700
     28 H9          -4.7170    -2.0790     1.1120 hc         1 2XD       0.058700
     29 H10         -6.6830     0.0350     0.6640 h4         1 2XD       0.158000
     30 H11         -6.4070     2.1490    -0.8420 hn         1 2XD       0.376000
     31 H12          3.8500     3.1140     1.1350 ha         1 2XD       0.114000
     32 H13          6.1820     2.4840     0.5270 ha         1 2XD       0.111000
     33 H14          6.6170     0.2960    -0.5830 ha         1 2XD       0.128000
     34 H15          3.9490    -1.9670    -1.2240 ho         1 2XD       0.526000
     35 H2          -1.9060     0.5160    -1.6390 h1         1 2XD       0.070700
@<TRIPOS>BOND
     1     1     3 ar  
     2     1    14 ar  
     3     1    21 1   
     4     2    11 1   
     5     2    20 1   
     6     2    22 1   
     7     2    35 1   
     8     3     4 1   
     9     3    18 ar  
    10     4     6 1   
    11     4    15 2   
    12     5     9 1   
    13     5    10 2   
    14     5    11 1   
    15     6     7 2   
    16     6    23 1   
    17     7    20 1   
    18     7    24 1   
    19     8     9 1   
    20     8    20 1   
    21     8    25 1   
    22     8    26 1   
    23     9    27 1   
    24     9    28 1   
    25    10    12 1   
    26    10    29 1   
    27    11    13 2   
    28    12    13 1   
    29    12    30 1   
    30    14    16 ar  
    31    14    31 1   
    32    16    17 ar  
    33    16    32 1   
    34    17    18 ar  
    35    17    33 1   
    36    18    19 1   
    37    19    34 1   
@<TRIPOS>SUBSTRUCTURE
     1 2XD         1 TEMP              0 ****  ****    0 ROOT
