@<TRIPOS>MOLECULE
2XE
   13    13     1     0     0
SMALL
No Charge or Current Charge


@<TRIPOS>ATOM
      1 SAH          3.9850    -0.3550     0.2780 sh         1 2XE      -0.164800
      2 CAI         -0.5900    -0.0110    -0.0870 ca         1 2XE      -0.026900
      3 Br          -2.4910     0.1280    -0.2400 br         1 2XE      -0.093100
      4 CAK          0.1890     1.1480     0.0650 ca         1 2XE      -0.069500
      5 CAL          1.5870     1.0440     0.1770 ca         1 2XE      -0.111000
      6 CAM          2.2120    -0.2170     0.1370 ca         1 2XE      -0.068000
      7 CAN          1.4250    -1.3730    -0.0160 ca         1 2XE      -0.111000
      8 CAO          0.0270    -1.2730    -0.1280 ca         1 2XE      -0.069500
      9 H1           4.2280     0.9710     0.4010 hs         1 2XE       0.203800
     10 H2          -0.2880     2.1250     0.0960 ha         1 2XE       0.131000
     11 H3           2.1830     1.9460     0.2940 ha         1 2XE       0.123000
     12 H4           1.8980    -2.3520    -0.0470 ha         1 2XE       0.123000
     13 H5          -0.5760    -2.1710    -0.2460 ha         1 2XE       0.131000
@<TRIPOS>BOND
     1     1     6 1   
     2     1     9 1   
     3     2     3 1   
     4     2     4 ar  
     5     2     8 ar  
     6     4     5 ar  
     7     4    10 1   
     8     5     6 ar  
     9     5    11 1   
    10     6     7 ar  
    11     7     8 ar  
    12     7    12 1   
    13     8    13 1   
@<TRIPOS>SUBSTRUCTURE
     1 2XE         1 TEMP              0 ****  ****    0 ROOT
