@<TRIPOS>MOLECULE
2XE
   13    13     1     0     0
SMALL
bcc


@<TRIPOS>ATOM
      1 SAH          3.9390    -0.3820     0.2720 sh         1 2XE      -0.291700
      2 CAI         -0.5690    -0.0130    -0.0860 ca         1 2XE      -0.026900
      3 BR          -2.4460     0.1100    -0.2360 br         1 2XE      -0.093100
      4 CAK          0.1840     1.1410     0.0630 ca         1 2XE      -0.087500
      5 CAL          1.5640     1.0480     0.1740 ca         1 2XE      -0.129000
      6 CAM          2.1920    -0.1930     0.1370 ca         1 2XE       0.058900
      7 CAN          1.4210    -1.3440    -0.0130 ca         1 2XE      -0.129000
      8 CAO          0.0430    -1.2580    -0.1250 ca         1 2XE      -0.087500
      9 H1           4.2490     0.9120     0.3980 hs         1 2XE       0.203800
     10 H2          -0.2830     2.1160     0.0960 ha         1 2XE       0.149000
     11 H3           2.1430     1.9550     0.2930 ha         1 2XE       0.141000
     12 H4           1.8890    -2.3200    -0.0450 ha         1 2XE       0.141000
     13 H5          -0.5370    -2.1630    -0.2430 ha         1 2XE       0.149000
@<TRIPOS>BOND
     1     1     6 1   
     2     1     9 1   
     3     2     3 1   
     4     2     4 ar  
     5     2     8 ar  
     6     4     5 ar  
     7     4    10 1   
     8     5     6 ar  
     9     5    11 1   
    10     6     7 ar  
    11     7     8 ar  
    12     7    12 1   
    13     8    13 1   
@<TRIPOS>SUBSTRUCTURE
     1 2XE         1 TEMP              0 ****  ****    0 ROOT
