@<TRIPOS>MOLECULE
2XF
   58    60     1     0     0
SMALL
No Charge or Current Charge


@<TRIPOS>ATOM
      1 C1          -2.9060     0.2160    -0.4400 c6         1 2XF       0.126700
      2 C2          -2.5090    -0.4570    -1.7890 c6         1 2XF       0.136800
      3 N3          -1.1670    -0.0220    -2.2650 n7         1 2XF      -0.865400
      4 C4          -0.0870    -0.3030    -1.2890 c6         1 2XF       0.162800
      5 C5          -0.4090     0.3230     0.0870 c6         1 2XF      -0.136700
      6 C6          -1.8140    -0.0760     0.6210 c6         1 2XF      -0.078400
      7 C7           0.7530     0.0790     1.0800 c          1 2XF       0.609100
      8 N8           1.8680     0.9600     1.1100 n          1 2XF      -0.391800
      9 O9           0.7280    -0.9130     1.7970 o          1 2XF      -0.599100
     10 N10         -4.2120    -0.2600     0.0330 ns         1 2XF      -0.506900
     11 C11          1.9540     2.2090     0.3410 cx         1 2XF       0.046700
     12 C12          3.0790     0.5810     1.8880 c3         1 2XF       0.159300
     13 C13          1.0600     3.4000     0.6120 cx         1 2XF      -0.135400
     14 C14          2.5370     3.4980     0.8850 cx         1 2XF      -0.135400
     15 C15          3.9290    -0.5060     1.2250 ca         1 2XF      -0.084300
     16 C16          3.7510    -1.8500     1.6190 ca         1 2XF      -0.067000
     17 C17          4.5070    -2.8770     1.0310 ca         1 2XF      -0.103000
     18 C18          5.4570    -2.5720     0.0440 ca         1 2XF      -0.091000
     19 C19          5.6560    -1.2400    -0.3510 ca         1 2XF       0.111000
     20 C20          4.8980    -0.2020     0.2370 ca         1 2XF       0.128000
     21 Cl1          5.1900     1.4700    -0.2630 cl         1 2XF      -0.183000
     22 Cl2          6.8680    -0.8980    -1.5870 cl         1 2XF      -0.179000
     23 C23         -5.4230     0.1620    -0.4280 c          1 2XF       0.650100
     24 O24         -5.5770     1.0060    -1.2940 o          1 2XF      -0.550000
     25 O25         -6.3950    -0.5230     0.2480 os         1 2XF      -0.481100
     26 C26         -7.8070    -0.3190     0.0010 c3         1 2XF       0.225000
     27 C27         -8.5080    -1.2900     0.9760 c3         1 2XF      -0.108767
     28 C28         -8.1900     1.1430     0.3450 c3         1 2XF      -0.108767
     29 C29         -8.1410    -0.7070    -1.4630 c3         1 2XF      -0.108767
     30 H1          -2.9660     1.3040    -0.5970 h1         1 2XF       0.087700
     31 H2          -2.5150    -1.5510    -1.6660 h1         1 2XF       0.041200
     32 H3          -3.2600    -0.2090    -2.5530 h1         1 2XF       0.041200
     33 H4          -0.9510    -0.5020    -3.1490 hn         1 2XF       0.422000
     34 H6           0.0310    -1.3920    -1.1750 h1         1 2XF       0.042200
     35 H7           0.8660     0.0950    -1.6690 h1         1 2XF       0.042200
     36 H8          -0.4360     1.3950    -0.1240 hc         1 2XF       0.081700
     37 H9          -2.0350     0.4720     1.5470 hc         1 2XF       0.058700
     38 H10         -1.8240    -1.1460     0.8750 hc         1 2XF       0.058700
     39 H11         -4.2450    -0.9670     0.7550 hn         1 2XF       0.324500
     40 H12          2.1690     1.9560    -0.6980 h1         1 2XF       0.089700
     41 H13          3.7080     1.4600     2.0710 h1         1 2XF       0.060700
     42 H14          2.7620     0.2350     2.8800 h1         1 2XF       0.060700
     43 H15          0.6640     3.9370    -0.2460 hc         1 2XF       0.080200
     44 H16          0.3910     3.3490     1.4670 hc         1 2XF       0.080200
     45 H17          2.8430     3.5410     1.9270 hc         1 2XF       0.080200
     46 H18          3.1400     4.1000     0.2100 hc         1 2XF       0.080200
     47 H19          3.0220    -2.1020     2.3850 ha         1 2XF       0.129000
     48 H20          4.3560    -3.9090     1.3420 ha         1 2XF       0.124000
     49 H21          6.0430    -3.3670    -0.4110 ha         1 2XF       0.132000
     50 H22         -8.2470    -1.0560     2.0150 hc         1 2XF       0.049033
     51 H23         -9.5980    -1.2230     0.8770 hc         1 2XF       0.049033
     52 H24         -8.2130    -2.3270     0.7740 hc         1 2XF       0.049033
     53 H25         -7.8190     1.8520    -0.4030 hc         1 2XF       0.049033
     54 H26         -9.2810     1.2530     0.3800 hc         1 2XF       0.049033
     55 H27         -7.7900     1.4310     1.3240 hc         1 2XF       0.049033
     56 H28         -7.7060    -1.6810    -1.7160 hc         1 2XF       0.049033
     57 H29         -9.2260    -0.7740    -1.6010 hc         1 2XF       0.049033
     58 H30         -7.7700     0.0340    -2.1780 hc         1 2XF       0.049033
@<TRIPOS>BOND
     1     1     2 1   
     2     1     6 1   
     3     1    10 1   
     4     1    30 1   
     5     2     3 1   
     6     2    31 1   
     7     2    32 1   
     8     3     4 1   
     9     3    33 1   
    10     4     5 1   
    11     4    34 1   
    12     4    35 1   
    13     5     6 1   
    14     5     7 1   
    15     5    36 1   
    16     6    37 1   
    17     6    38 1   
    18     7     8 1   
    19     7     9 2   
    20     8    11 1   
    21     8    12 1   
    22    10    23 1   
    23    10    39 1   
    24    11    13 1   
    25    11    14 1   
    26    11    40 1   
    27    12    15 1   
    28    12    41 1   
    29    12    42 1   
    30    13    14 1   
    31    13    43 1   
    32    13    44 1   
    33    14    45 1   
    34    14    46 1   
    35    15    16 ar  
    36    15    20 ar  
    37    16    17 ar  
    38    16    47 1   
    39    17    18 ar  
    40    17    48 1   
    41    18    19 ar  
    42    18    49 1   
    43    19    20 ar  
    44    19    22 1   
    45    20    21 1   
    46    23    24 2   
    47    23    25 1   
    48    25    26 1   
    49    26    27 1   
    50    26    28 1   
    51    26    29 1   
    52    27    50 1   
    53    27    51 1   
    54    27    52 1   
    55    28    53 1   
    56    28    54 1   
    57    28    55 1   
    58    29    56 1   
    59    29    57 1   
    60    29    58 1   
@<TRIPOS>SUBSTRUCTURE
     1 2XF         1 TEMP              0 ****  ****    0 ROOT
