@<TRIPOS>MOLECULE
2XF
   58    60     1     0     0
SMALL
abcg2


@<TRIPOS>ATOM
      1 C1          -2.7370     0.2560    -0.4490 c6         1 2XF       0.126700
      2 C2          -2.2890    -0.3190    -1.7910 c6         1 2XF       0.136800
      3 N3          -1.0630     0.3330    -2.2050 n7         1 2XF      -0.865400
      4 C4           0.0270     0.0770    -1.2870 c6         1 2XF       0.162800
      5 C5          -0.3270     0.6580     0.0900 c6         1 2XF      -0.136700
      6 C6          -1.6400     0.0660     0.5930 c6         1 2XF      -0.078400
      7 C7           0.8220     0.3710     1.0380 c          1 2XF       0.609100
      8 N8           1.9040     1.1920     0.9840 n          1 2XF      -0.391800
      9 O9           0.8190    -0.6140     1.7600 o          1 2XF      -0.599100
     10 N10         -3.9600    -0.3550     0.0210 ns         1 2XF      -0.506900
     11 C11          1.8760     2.4730     0.3370 cx         1 2XF       0.046700
     12 C12          3.1220     0.7410     1.6450 c3         1 2XF       0.159300
     13 C13          0.9710     3.5480     0.8560 cx         1 2XF      -0.135400
     14 C14          2.4470     3.6550     1.0540 cx         1 2XF      -0.135400
     15 C15          3.6530    -0.5740     1.1270 ca         1 2XF      -0.084300
     16 C16          3.6970    -1.6810     1.9650 ca         1 2XF      -0.067000
     17 C17          4.2060    -2.8950     1.5340 ca         1 2XF      -0.103000
     18 C18          4.6760    -3.0310     0.2380 ca         1 2XF      -0.091000
     19 C19          4.6420    -1.9370    -0.6120 ca         1 2XF       0.111000
     20 C20          4.1390    -0.7160    -0.1710 ca         1 2XF       0.128000
     21 CL1          4.1470     0.6350    -1.2420 cl         1 2XF      -0.183000
     22 CL2          5.2400    -2.1060    -2.2210 cl         1 2XF      -0.179000
     23 C23         -5.1810     0.0640    -0.3670 c          1 2XF       0.650100
     24 O24         -5.3770     1.0140    -1.0990 o          1 2XF      -0.550000
     25 O25         -6.1260    -0.7010     0.1820 os         1 2XF      -0.481100
     26 C26         -7.5420    -0.4890    -0.0560 c3         1 2XF       0.225000
     27 C27         -8.2000    -1.5840     0.7750 c3         1 2XF      -0.108767
     28 C28         -7.9890     0.8760     0.4540 c3         1 2XF      -0.108767
     29 C29         -7.8860    -0.6850    -1.5280 c3         1 2XF      -0.108767
     30 H1          -2.9190     1.3250    -0.5800 h1         1 2XF       0.087700
     31 H2          -2.1800    -1.4120    -1.6830 h1         1 2XF       0.041200
     32 H3          -3.0590    -0.1420    -2.5440 h1         1 2XF       0.041200
     33 H4          -0.8060     0.0260    -3.1330 hn         1 2XF       0.422000
     34 H6           0.2470    -0.9970    -1.1710 h1         1 2XF       0.042200
     35 H7           0.9310     0.5480    -1.6770 h1         1 2XF       0.042200
     36 H8          -0.4580     1.7340    -0.0410 hc         1 2XF       0.081700
     37 H9          -1.9350     0.5370     1.5340 hc         1 2XF       0.058700
     38 H10         -1.5130    -1.0020     0.7890 hc         1 2XF       0.058700
     39 H11         -3.8920    -1.1950     0.5750 hn         1 2XF       0.324500
     40 H12          2.0290     2.4540    -0.7370 h1         1 2XF       0.089700
     41 H13          3.8760     1.5140     1.5040 h1         1 2XF       0.060700
     42 H14          2.9620     0.6480     2.7220 h1         1 2XF       0.060700
     43 H15          0.4850     4.1880     0.1300 hc         1 2XF       0.080200
     44 H16          0.3690     3.3200     1.7270 hc         1 2XF       0.080200
     45 H17          2.8220     3.5130     2.0590 hc         1 2XF       0.080200
     46 H18          3.0100     4.3670     0.4650 hc         1 2XF       0.080200
     47 H19          3.3210    -1.5830     2.9750 ha         1 2XF       0.129000
     48 H20          4.2300    -3.7430     2.2040 ha         1 2XF       0.124000
     49 H21          5.0690    -3.9740    -0.1140 ha         1 2XF       0.132000
     50 H22         -7.9670    -1.4740     1.8350 hc         1 2XF       0.049033
     51 H23         -9.2830    -1.5290     0.6650 hc         1 2XF       0.049033
     52 H24         -7.8800    -2.5760     0.4530 hc         1 2XF       0.049033
     53 H25         -7.5730     1.6950    -0.1280 hc         1 2XF       0.049033
     54 H26         -9.0760     0.9410     0.3950 hc         1 2XF       0.049033
     55 H27         -7.7090     1.0130     1.5000 hc         1 2XF       0.049033
     56 H28         -7.5180    -1.6470    -1.8900 hc         1 2XF       0.049033
     57 H29         -8.9700    -0.6840    -1.6450 hc         1 2XF       0.049033
     58 H30         -7.4810     0.1030    -2.1590 hc         1 2XF       0.049033
@<TRIPOS>BOND
     1     1     2 1   
     2     1     6 1   
     3     1    10 1   
     4     1    30 1   
     5     2     3 1   
     6     2    31 1   
     7     2    32 1   
     8     3     4 1   
     9     3    33 1   
    10     4     5 1   
    11     4    34 1   
    12     4    35 1   
    13     5     6 1   
    14     5     7 1   
    15     5    36 1   
    16     6    37 1   
    17     6    38 1   
    18     7     8 1   
    19     7     9 2   
    20     8    11 1   
    21     8    12 1   
    22    10    23 1   
    23    10    39 1   
    24    11    13 1   
    25    11    14 1   
    26    11    40 1   
    27    12    15 1   
    28    12    41 1   
    29    12    42 1   
    30    13    14 1   
    31    13    43 1   
    32    13    44 1   
    33    14    45 1   
    34    14    46 1   
    35    15    16 ar  
    36    15    20 ar  
    37    16    17 ar  
    38    16    47 1   
    39    17    18 ar  
    40    17    48 1   
    41    18    19 ar  
    42    18    49 1   
    43    19    20 ar  
    44    19    22 1   
    45    20    21 1   
    46    23    24 2   
    47    23    25 1   
    48    25    26 1   
    49    26    27 1   
    50    26    28 1   
    51    26    29 1   
    52    27    50 1   
    53    27    51 1   
    54    27    52 1   
    55    28    53 1   
    56    28    54 1   
    57    28    55 1   
    58    29    56 1   
    59    29    57 1   
    60    29    58 1   
@<TRIPOS>SUBSTRUCTURE
     1 2XF         1 TEMP              0 ****  ****    0 ROOT
