@<TRIPOS>MOLECULE
2XG
   13    13     1     0     0
SMALL
No Charge or Current Charge


@<TRIPOS>ATOM
      1 SAG         -3.0690     0.0930     0.3210 sh         1 2XG      -0.181800
      2 CAH          1.4940     0.5470    -0.0920 ca         1 2XG       0.141000
      3 FAI          2.8340     0.6910    -0.2140 f          1 2XG      -0.156000
      4 CAJ          0.9260    -0.7310     0.0660 ca         1 2XG       0.137000
      5 FAK          1.7140    -1.8300     0.0980 f          1 2XG      -0.158000
      6 CAL         -0.4670    -0.8730     0.1920 ca         1 2XG      -0.122000
      7 CAM         -1.3000     0.2620     0.1610 ca         1 2XG      -0.084000
      8 CAN         -0.7260     1.5390     0.0030 ca         1 2XG      -0.070000
      9 CAO          0.6680     1.6820    -0.1230 ca         1 2XG      -0.128000
     10 H1          -3.0820    -1.2550     0.4450 hs         1 2XG       0.206800
     11 H2          -0.8930    -1.8660     0.3140 ha         1 2XG       0.139000
     12 H3          -1.3630     2.4200    -0.0220 ha         1 2XG       0.137000
     13 H4           1.1080     2.6690    -0.2450 ha         1 2XG       0.139000
@<TRIPOS>BOND
     1     1     7 1   
     2     1    10 1   
     3     2     3 1   
     4     2     4 ar  
     5     2     9 ar  
     6     4     5 1   
     7     4     6 ar  
     8     6     7 ar  
     9     6    11 1   
    10     7     8 ar  
    11     8     9 ar  
    12     8    12 1   
    13     9    13 1   
@<TRIPOS>SUBSTRUCTURE
     1 2XG         1 TEMP              0 ****  ****    0 ROOT
