@<TRIPOS>MOLECULE
2XG
   13    13     1     0     0
SMALL
bcc


@<TRIPOS>ATOM
      1 SAG         -3.0360     0.0230     0.0390 sh         1 2XG      -0.308700
      2 CAH          1.4710     0.5530    -0.0570 ca         1 2XG       0.105900
      3 FAI          2.7960     0.6980    -0.1060 f          1 2XG      -0.120900
      4 CAJ          0.9320    -0.7210     0.0280 ca         1 2XG       0.101900
      5 FAK          1.7540    -1.7710     0.0570 f          1 2XG      -0.122900
      6 CAL         -0.4320    -0.9100     0.0640 ca         1 2XG      -0.140000
      7 CAM         -1.2750     0.1980     0.0530 ca         1 2XG       0.042900
      8 CAN         -0.7340     1.4750    -0.0210 ca         1 2XG      -0.088000
      9 CAO          0.6410     1.6520    -0.0860 ca         1 2XG      -0.146000
     10 H1          -3.1370    -0.9130     0.9890 hs         1 2XG       0.206800
     11 H2          -0.8220    -1.9180     0.1060 ha         1 2XG       0.157000
     12 H3          -1.3830     2.3400    -0.0160 ha         1 2XG       0.155000
     13 H4           1.0690     2.6430    -0.1450 ha         1 2XG       0.157000
@<TRIPOS>BOND
     1     1     7 1   
     2     1    10 1   
     3     2     3 1   
     4     2     4 ar  
     5     2     9 ar  
     6     4     5 1   
     7     4     6 ar  
     8     6     7 ar  
     9     6    11 1   
    10     7     8 ar  
    11     8     9 ar  
    12     8    12 1   
    13     9    13 1   
@<TRIPOS>SUBSTRUCTURE
     1 2XG         1 TEMP              0 ****  ****    0 ROOT
