@<TRIPOS>MOLECULE
2XH
   19    20     1     0     0
SMALL
No Charge or Current Charge


@<TRIPOS>ATOM
      1 C14          1.9400    -1.8490     0.0030 ca         1 2XH      -0.098000
      2 C5           2.8870    -0.8140     0.0240 ca         1 2XH      -0.108000
      3 C6           2.4630     0.5230     0.0390 ca         1 2XH      -0.095000
      4 C11          1.0890     0.8310     0.0320 ca         1 2XH      -0.040000
      5 C7           0.6800     2.1770     0.0500 ca         1 2XH      -0.084000
      6 C8          -0.6850     2.4970     0.0450 ca         1 2XH      -0.114000
      7 C9          -1.6450     1.4740     0.0190 ca         1 2XH      -0.066000
      8 C10         -1.2570     0.1210    -0.0010 ca         1 2XH      -0.086000
      9 C12          0.1230    -0.2070     0.0080 ca         1 2XH      -0.018000
     10 C13          0.5660    -1.5500    -0.0050 ca         1 2XH      -0.108000
     11 SAH         -2.5430    -1.1230    -0.0420 sh         1 2XH      -0.212800
     12 H1           2.2690    -2.8860    -0.0070 ha         1 2XH       0.115000
     13 H2           3.9500    -1.0490     0.0300 ha         1 2XH       0.115000
     14 H3           3.2030     1.3200     0.0570 ha         1 2XH       0.114000
     15 H4           1.4190     2.9760     0.0690 ha         1 2XH       0.116000
     16 H5          -1.0000     3.5380     0.0590 ha         1 2XH       0.118000
     17 H6          -2.7020     1.7320     0.0130 ha         1 2XH       0.127000
     18 H7          -0.1390    -2.3750    -0.0170 ha         1 2XH       0.119000
     19 H8          -2.0650    -1.7890    -1.1200 hs         1 2XH       0.206800
@<TRIPOS>BOND
     1     1     2 ar  
     2     1    10 ar  
     3     1    12 1   
     4     2     3 ar  
     5     2    13 1   
     6     3     4 ar  
     7     3    14 1   
     8     4     5 ar  
     9     4     9 ar  
    10     5     6 ar  
    11     5    15 1   
    12     6     7 ar  
    13     6    16 1   
    14     7     8 ar  
    15     7    17 1   
    16     8     9 ar  
    17     8    11 1   
    18     9    10 ar  
    19    10    18 1   
    20    11    19 1   
@<TRIPOS>SUBSTRUCTURE
     1 2XH         1 TEMP              0 ****  ****    0 ROOT
