@<TRIPOS>MOLECULE
2XH
   19    20     1     0     0
SMALL
abcg2


@<TRIPOS>ATOM
      1 C14          1.9310    -1.8350     0.0010 ca         1 2XH      -0.098000
      2 C5           2.8830    -0.7970     0.0160 ca         1 2XH      -0.108000
      3 C6           2.4690     0.5060     0.0330 ca         1 2XH      -0.095000
      4 C11          1.0920     0.8320     0.0260 ca         1 2XH      -0.040000
      5 C7           0.6640     2.1800     0.0670 ca         1 2XH      -0.084000
      6 C8          -0.6670     2.4850     0.0610 ca         1 2XH      -0.114000
      7 C9          -1.6290     1.4570    -0.0090 ca         1 2XH      -0.066000
      8 C10         -1.2500     0.1390    -0.0460 ca         1 2XH      -0.086000
      9 C12          0.1310    -0.2140    -0.0090 ca         1 2XH      -0.018000
     10 C13          0.5920    -1.5510    -0.0100 ca         1 2XH      -0.108000
     11 SAH         -2.5370    -1.0810    -0.0300 sh         1 2XH      -0.212800
     12 H1           2.2620    -2.8660     0.0030 ha         1 2XH       0.115000
     13 H2           3.9390    -1.0320     0.0220 ha         1 2XH       0.115000
     14 H3           3.1930     1.3120     0.0540 ha         1 2XH       0.114000
     15 H4           1.4090     2.9660     0.1050 ha         1 2XH       0.116000
     16 H5          -0.9950     3.5150     0.0940 ha         1 2XH       0.118000
     17 H6          -2.6790     1.7160    -0.0430 ha         1 2XH       0.127000
     18 H7          -0.1220    -2.3630    -0.0080 ha         1 2XH       0.119000
     19 H8          -2.1330    -1.8210    -1.0720 hs         1 2XH       0.206800
@<TRIPOS>BOND
     1     1     2 ar  
     2     1    10 ar  
     3     1    12 1   
     4     2     3 ar  
     5     2    13 1   
     6     3     4 ar  
     7     3    14 1   
     8     4     5 ar  
     9     4     9 ar  
    10     5     6 ar  
    11     5    15 1   
    12     6     7 ar  
    13     6    16 1   
    14     7     8 ar  
    15     7    17 1   
    16     8     9 ar  
    17     8    11 1   
    18     9    10 ar  
    19    10    18 1   
    20    11    19 1   
@<TRIPOS>SUBSTRUCTURE
     1 2XH         1 TEMP              0 ****  ****    0 ROOT
