@<TRIPOS>MOLECULE
2XI
   63    64     1     0     0
SMALL
No Charge or Current Charge


@<TRIPOS>ATOM
      1 C10         -9.9610   -19.3740     3.7170 ca         1 2XI      -0.167000
      2 N12        -12.1790   -19.9390     4.5100 nb         1 2XI      -0.669000
      3 C13        -12.4760   -20.3780     3.2630 ca         1 2XI       0.381900
      4 C15        -13.8170   -22.4270     0.1540 ca         1 2XI      -0.072000
      5 C17        -16.1090   -23.2700     0.1250 ca         1 2XI      -0.105500
      6 C20        -17.9410   -22.1320    -2.8390 c3         1 2XI      -0.084100
      7 C21        -17.1560   -24.5250    -3.1280 c3         1 2XI      -0.084100
      8 C22        -18.6520   -23.9050    -1.2070 c3         1 2XI      -0.084100
      9 C24        -13.8670   -22.3060    -1.2460 ca         1 2XI      -0.097000
     10 C26        -12.3070   -24.7770     1.2960 c3         1 2XI       0.108300
     11 C01        -11.8930   -17.8720    -2.9930 c3         1 2XI      -0.104433
     12 C02        -12.9000   -18.1590    -1.8560 c3         1 2XI       0.139400
     13 C03        -13.1600   -16.8510    -1.0700 c3         1 2XI      -0.104433
     14 C04        -14.2170   -18.6980    -2.4730 c3         1 2XI      -0.104433
     15 C06        -12.8480   -19.7600     0.1390 c          1 2XI       0.599100
     16 C07        -11.9620   -20.8540     0.8060 c3         1 2XI       0.094000
     17 C08        -11.5570   -20.3480     2.1930 ca         1 2XI      -0.133300
     18 C09        -10.2700   -19.8300     2.4260 ca         1 2XI      -0.056000
     19 C11        -10.9380   -19.4460     4.7250 ca         1 2XI       0.342900
     20 C16        -14.9300   -22.9610     0.8250 ca         1 2XI      -0.097000
     21 C18        -16.1930   -23.0900    -1.2780 ca         1 2XI      -0.051300
     22 C19        -17.4740   -23.4120    -2.0930 c3         1 2XI      -0.001700
     23 C23        -15.0430   -22.6130    -1.9480 ca         1 2XI      -0.105500
     24 C27        -12.3350   -25.3960    -0.1210 c3         1 2XI      -0.127100
     25 N05        -12.2890   -19.1730    -0.9880 ns         1 2XI      -0.502900
     26 N14        -12.5700   -22.2270     0.8430 n          1 2XI      -0.231400
     27 O28        -11.5060   -25.6380     2.1400 oh         1 2XI      -0.641000
     28 O29        -10.6300   -23.1060     1.7540 o          1 2XI      -0.594100
     29 O30        -13.9290   -19.4120     0.6000 o          1 2XI      -0.581100
     30 H1          -8.9790   -18.9680     3.9420 ha         1 2XI       0.121000
     31 H2         -13.4830   -20.7690     3.1210 h4         1 2XI       0.025100
     32 H3         -16.9470   -23.6520     0.6990 ha         1 2XI       0.118500
     33 H4         -18.1320   -21.3190    -2.1280 hc         1 2XI       0.036922
     34 H5         -17.1900   -21.7830    -3.5570 hc         1 2XI       0.036922
     35 H6         -18.8670   -22.3180    -3.3960 hc         1 2XI       0.036922
     36 H7         -16.7870   -25.4270    -2.6250 hc         1 2XI       0.036922
     37 H8         -18.0520   -24.7980    -3.6990 hc         1 2XI       0.036922
     38 H9         -16.3920   -24.2040    -3.8460 hc         1 2XI       0.036922
     39 H10        -18.3930   -24.8330    -0.6830 hc         1 2XI       0.036922
     40 H11        -18.9300   -23.1480    -0.4630 hc         1 2XI       0.036922
     41 H12        -19.5410   -24.1100    -1.8160 hc         1 2XI       0.036922
     42 H13        -12.9910   -21.9730    -1.7980 ha         1 2XI       0.123000
     43 H14        -13.3330   -24.7530     1.6810 h1         1 2XI       0.091700
     44 H15        -10.9440   -17.4950    -2.5910 hc         1 2XI       0.045367
     45 H16        -11.6810   -18.7820    -3.5690 hc         1 2XI       0.045367
     46 H17        -12.2880   -17.1200    -3.6870 hc         1 2XI       0.045367
     47 H18        -13.9210   -16.9880    -0.2930 hc         1 2XI       0.045367
     48 H19        -12.2410   -16.4970    -0.5870 hc         1 2XI       0.045367
     49 H20        -13.5150   -16.0590    -1.7410 hc         1 2XI       0.045367
     50 H21        -14.9820   -18.8720    -1.7090 hc         1 2XI       0.045367
     51 H22        -14.6280   -17.9810    -3.1940 hc         1 2XI       0.045367
     52 H23        -14.0420   -19.6440    -2.9990 hc         1 2XI       0.045367
     53 H24        -11.0530   -20.9340     0.1980 h1         1 2XI       0.059700
     54 H25         -9.5280   -19.7840     1.6320 ha         1 2XI       0.112000
     55 H26        -10.7210   -19.0990     5.7340 h4         1 2XI       0.016100
     56 H27        -14.8980   -23.1090     1.9020 ha         1 2XI       0.123000
     57 H28        -15.0470   -22.4850    -3.0270 ha         1 2XI       0.118500
     58 H29        -12.6740   -26.4380    -0.0780 hc         1 2XI       0.048367
     59 H30        -13.0190   -24.8560    -0.7820 hc         1 2XI       0.048367
     60 H31        -11.3360   -25.3790    -0.5730 hc         1 2XI       0.048367
     61 H32        -11.3760   -19.5170    -1.2580 hn         1 2XI       0.309500
     62 H33        -10.6800   -25.1320     2.3260 ho         1 2XI       0.460000
     63 C25        -11.7600   -23.3050     1.3140 c          1 2XI       0.570100
@<TRIPOS>BOND
     1     1    18 ar  
     2     1    19 ar  
     3     1    30 1   
     4     2     3 ar  
     5     2    19 ar  
     6     3    17 ar  
     7     3    31 1   
     8     4     9 ar  
     9     4    20 ar  
    10     4    26 1   
    11     5    20 ar  
    12     5    21 ar  
    13     5    32 1   
    14     6    22 1   
    15     6    33 1   
    16     6    34 1   
    17     6    35 1   
    18     7    22 1   
    19     7    36 1   
    20     7    37 1   
    21     7    38 1   
    22     8    22 1   
    23     8    39 1   
    24     8    40 1   
    25     8    41 1   
    26     9    23 ar  
    27     9    42 1   
    28    10    24 1   
    29    10    27 1   
    30    10    43 1   
    31    10    63 1   
    32    11    12 1   
    33    11    44 1   
    34    11    45 1   
    35    11    46 1   
    36    12    13 1   
    37    12    14 1   
    38    12    25 1   
    39    13    47 1   
    40    13    48 1   
    41    13    49 1   
    42    14    50 1   
    43    14    51 1   
    44    14    52 1   
    45    15    16 1   
    46    15    25 1   
    47    15    29 2   
    48    16    17 1   
    49    16    26 1   
    50    16    53 1   
    51    17    18 ar  
    52    18    54 1   
    53    19    55 1   
    54    20    56 1   
    55    21    22 1   
    56    21    23 ar  
    57    23    57 1   
    58    24    58 1   
    59    24    59 1   
    60    24    60 1   
    61    25    61 1   
    62    26    63 1   
    63    27    62 1   
    64    28    63 2   
@<TRIPOS>SUBSTRUCTURE
     1 2XI         1 TEMP              0 ****  ****    0 ROOT
