@<TRIPOS>MOLECULE
2XI
   63    64     1     0     0
SMALL
bcc


@<TRIPOS>ATOM
      1 C10        -10.1890   -19.2430     3.7920 ca         1 2XI      -0.250300
      2 N12        -12.1570   -20.3410     4.5740 nb         1 2XI      -0.669000
      3 C13        -12.3840   -20.7620     3.3370 ca         1 2XI       0.447200
      4 C15        -13.6580   -22.5050     0.0870 ca         1 2XI       0.020600
      5 C17        -16.0460   -22.7830     0.0490 ca         1 2XI      -0.123500
      6 C20        -17.5040   -21.8270    -3.0530 c3         1 2XI      -0.084100
      7 C21        -17.2390   -24.3190    -3.0190 c3         1 2XI      -0.084100
      8 C22        -18.5700   -23.1780    -1.2630 c3         1 2XI      -0.084100
      9 C24        -13.6400   -22.6240    -1.2970 ca         1 2XI      -0.115000
     10 C26        -12.1450   -24.7210     1.1020 c3         1 2XI       0.085100
     11 C01        -12.5090   -18.3660    -3.0920 c3         1 2XI      -0.104433
     12 C02        -13.2890   -18.4980    -1.7850 c3         1 2XI       0.139400
     13 C03        -13.3510   -17.1350    -1.0950 c3         1 2XI      -0.104433
     14 C04        -14.6950   -19.0140    -2.0890 c3         1 2XI      -0.104433
     15 C06        -12.8740   -19.8970     0.2550 c          1 2XI       0.666100
     16 C07        -11.8790   -20.9130     0.8540 c3         1 2XI       0.094000
     17 C08        -11.5560   -20.4700     2.2580 ca         1 2XI      -0.198600
     18 C09        -10.4350   -19.6920     2.5030 ca         1 2XI      -0.074000
     19 C11        -11.0800   -19.5940     4.7920 ca         1 2XI       0.408200
     20 C16        -14.8680   -22.5840     0.7560 ca         1 2XI      -0.115000
     21 C18        -16.0520   -22.8930    -1.3400 ca         1 2XI      -0.051300
     22 C19        -17.3320   -23.0570    -2.1510 c3         1 2XI      -0.001700
     23 C23        -14.8200   -22.8170    -1.9940 ca         1 2XI      -0.123500
     24 C27        -11.5680   -25.3550    -0.1600 c3         1 2XI      -0.127100
     25 N05        -12.5400   -19.4610    -0.9620 ns         1 2XI      -0.569900
     26 N14        -12.4440   -22.2660     0.7980 n          1 2XI      -0.391000
     27 O28        -11.7870   -25.4260     2.2610 oh         1 2XI      -0.578800
     28 O29        -10.5310   -23.0720     1.6750 o          1 2XI      -0.594100
     29 O30        -13.8480   -19.5390     0.8940 o          1 2XI      -0.581100
     30 H1          -9.3210   -18.6390     4.0180 ha         1 2XI       0.139000
     31 H2         -13.2660   -21.3780     3.1980 h4         1 2XI       0.025100
     32 H3         -16.9690   -22.8420     0.6080 ha         1 2XI       0.136500
     33 H4         -17.5630   -20.9110    -2.4620 hc         1 2XI       0.036922
     34 H5         -16.6780   -21.7160    -3.7570 hc         1 2XI       0.036922
     35 H6         -18.4230   -21.9100    -3.6360 hc         1 2XI       0.036922
     36 H7         -17.1220   -25.2120    -2.4040 hc         1 2XI       0.036922
     37 H8         -18.1500   -24.4350    -3.6100 hc         1 2XI       0.036922
     38 H9         -16.4000   -24.2770    -3.7150 hc         1 2XI       0.036922
     39 H10        -18.5170   -24.0470    -0.6040 hc         1 2XI       0.036922
     40 H11        -18.7240   -22.2910    -0.6470 hc         1 2XI       0.036922
     41 H12        -19.4560   -23.2960    -1.8880 hc         1 2XI       0.036922
     42 H13        -12.7010   -22.5610    -1.8330 ha         1 2XI       0.141000
     43 H14        -13.2330   -24.7530     1.0540 h1         1 2XI       0.091700
     44 H15        -11.4920   -18.0100    -2.9140 hc         1 2XI       0.045367
     45 H16        -12.4520   -19.3200    -3.6190 hc         1 2XI       0.045367
     46 H17        -13.0020   -17.6510    -3.7490 hc         1 2XI       0.045367
     47 H18        -13.9060   -17.1780    -0.1600 hc         1 2XI       0.045367
     48 H19        -12.3480   -16.7590    -0.8860 hc         1 2XI       0.045367
     49 H20        -13.8490   -16.4160    -1.7470 hc         1 2XI       0.045367
     50 H21        -15.3050   -19.0900    -1.1900 hc         1 2XI       0.045367
     51 H22        -15.1950   -18.3290    -2.7750 hc         1 2XI       0.045367
     52 H23        -14.6560   -19.9960    -2.5610 hc         1 2XI       0.045367
     53 H24        -10.9500   -20.9000     0.2730 h1         1 2XI       0.059700
     54 H25         -9.7550   -19.4440     1.6970 ha         1 2XI       0.130000
     55 H26        -10.9180   -19.2620     5.8120 h4         1 2XI       0.016100
     56 H27        -14.8960   -22.4940     1.8350 ha         1 2XI       0.141000
     57 H28        -14.7700   -22.8950    -3.0730 ha         1 2XI       0.136500
     58 H29        -11.8940   -26.3920    -0.2360 hc         1 2XI       0.048367
     59 H30        -11.8980   -24.8340    -1.0590 hc         1 2XI       0.048367
     60 H31        -10.4770   -25.3370    -0.1420 hc         1 2XI       0.048367
     61 H32        -11.7100   -19.8510    -1.3800 hn         1 2XI       0.309500
     62 H33        -10.8320   -25.3530     2.3730 ho         1 2XI       0.421000
     63 C25        -11.6420   -23.2800     1.2170 c          1 2XI       0.637100
@<TRIPOS>BOND
     1     1    18 ar  
     2     1    19 ar  
     3     1    30 1   
     4     2     3 ar  
     5     2    19 ar  
     6     3    17 ar  
     7     3    31 1   
     8     4     9 ar  
     9     4    20 ar  
    10     4    26 1   
    11     5    20 ar  
    12     5    21 ar  
    13     5    32 1   
    14     6    22 1   
    15     6    33 1   
    16     6    34 1   
    17     6    35 1   
    18     7    22 1   
    19     7    36 1   
    20     7    37 1   
    21     7    38 1   
    22     8    22 1   
    23     8    39 1   
    24     8    40 1   
    25     8    41 1   
    26     9    23 ar  
    27     9    42 1   
    28    10    24 1   
    29    10    27 1   
    30    10    43 1   
    31    10    63 1   
    32    11    12 1   
    33    11    44 1   
    34    11    45 1   
    35    11    46 1   
    36    12    13 1   
    37    12    14 1   
    38    12    25 1   
    39    13    47 1   
    40    13    48 1   
    41    13    49 1   
    42    14    50 1   
    43    14    51 1   
    44    14    52 1   
    45    15    16 1   
    46    15    25 1   
    47    15    29 2   
    48    16    17 1   
    49    16    26 1   
    50    16    53 1   
    51    17    18 ar  
    52    18    54 1   
    53    19    55 1   
    54    20    56 1   
    55    21    22 1   
    56    21    23 ar  
    57    23    57 1   
    58    24    58 1   
    59    24    59 1   
    60    24    60 1   
    61    25    61 1   
    62    26    63 1   
    63    27    62 1   
    64    28    63 2   
@<TRIPOS>SUBSTRUCTURE
     1 2XI         1 TEMP              0 ****  ****    0 ROOT
