@<TRIPOS>MOLECULE
2XJ
   61    63     1     0     0
SMALL
No Charge or Current Charge


@<TRIPOS>ATOM
      1 CAC          5.3820     4.1540     0.8880 c3         1 2XJ      -0.103100
      2 CBF          4.7080     3.8260    -0.4660 c3         1 2XJ       0.189000
      3 CAD          3.8650     5.0240    -0.9560 c3         1 2XJ      -0.103100
      4 OAG          5.7480     3.6000    -1.4240 oh         1 2XJ      -0.643000
      5 CAN          3.8330     2.5410    -0.3640 c3         1 2XJ       0.129600
      6 OAT          4.6970     1.4060    -0.1470 os         1 2XJ      -0.313100
      7 CBB          4.2170     0.1150    -0.0040 ca         1 2XJ       0.110100
      8 CAK          2.8340    -0.1770    -0.0560 ca         1 2XJ      -0.136000
      9 CBA          5.1470    -0.9280     0.2000 ca         1 2XJ       0.128100
     10 OAS          6.4960    -0.6160     0.2460 os         1 2XJ      -0.313100
     11 CAB          7.5130    -1.6120     0.4510 c3         1 2XJ       0.144900
     12 CAI          4.6820    -2.2520     0.3490 ca         1 2XJ      -0.179000
     13 CAH          3.3070    -2.5340     0.2970 ca         1 2XJ      -0.092000
     14 CAY          2.3610    -1.5040     0.0940 ca         1 2XJ      -0.137500
     15 CBE          0.9120    -1.7950     0.0370 cc         1 2XJ       0.507900
     16 NAR         -0.0000    -0.8500    -0.1620 nd         1 2XJ      -0.639000
     17 SAV          0.2830    -3.4180     0.2250 ss         1 2XJ      -0.036400
     18 CBD         -1.3160    -2.7670     0.0220 cc         1 2XJ      -0.207300
     19 CAM         -2.5250    -3.6670     0.0690 c3         1 2XJ      -0.006100
     20 CAL         -2.8800    -4.2470    -1.3160 c3         1 2XJ      -0.074400
     21 CAA         -4.1200    -5.1610    -1.2900 c3         1 2XJ      -0.090100
     22 CBC         -1.2740    -1.4010    -0.1670 cd         1 2XJ       0.285300
     23 CAO         -2.4690    -0.5030    -0.3810 c3         1 2XJ       0.039300
     24 SAU         -3.3920    -0.0840     1.1760 ss         1 2XJ      -0.365300
     25 C4          -4.7470     0.9400     0.6160 ca         1 2XJ       0.298300
     26 C5          -5.6530     1.4530     1.5530 ca         1 2XJ      -0.341000
     27 N3          -4.8820     1.2020    -0.6980 nb         1 2XJ      -0.309000
     28 C2          -5.9200     1.9740    -1.0380 ca         1 2XJ       0.424900
     29 NAF         -6.0600     2.2380    -2.3550 nv         1 2XJ      -1.062900
     30 N1          -6.8410     2.5130    -0.2330 nb         1 2XJ      -0.335000
     31 C6          -6.6920     2.2400     1.0650 ca         1 2XJ       0.423900
     32 NAE         -7.6140     2.7800     1.8920 nv         1 2XJ      -1.072900
     33 H1           4.6260     4.3360     1.6620 hc         1 2XJ       0.046033
     34 H2           6.0200     3.3290     1.2250 hc         1 2XJ       0.046033
     35 H3           6.0060     5.0530     0.8060 hc         1 2XJ       0.046033
     36 H4           4.4840     5.9250    -1.0530 hc         1 2XJ       0.046033
     37 H5           3.4180     4.8130    -1.9350 hc         1 2XJ       0.046033
     38 H6           3.0540     5.2420    -0.2510 hc         1 2XJ       0.046033
     39 H7           6.0230     2.6650    -1.2950 ho         1 2XJ       0.438000
     40 H8           3.1190     2.6510     0.4630 h1         1 2XJ       0.038200
     41 H9           3.2640     2.4130    -1.2950 h1         1 2XJ       0.038200
     42 H10          2.1160     0.6220    -0.2120 ha         1 2XJ       0.143000
     43 H11          7.3730    -2.1190     1.4140 h1         1 2XJ       0.040700
     44 H12          7.4910    -2.3620    -0.3500 h1         1 2XJ       0.040700
     45 H13          8.5060    -1.1460     0.4530 h1         1 2XJ       0.040700
     46 H14          5.3710    -3.0770     0.5070 ha         1 2XJ       0.121000
     47 H15          2.9930    -3.5680     0.4160 ha         1 2XJ       0.115000
     48 H16         -2.3420    -4.4920     0.7680 hc         1 2XJ       0.057700
     49 H17         -3.3890    -3.1180     0.4640 hc         1 2XJ       0.057700
     50 H18         -3.0570    -3.4240    -2.0190 hc         1 2XJ       0.043700
     51 H19         -2.0240    -4.8160    -1.6990 hc         1 2XJ       0.043700
     52 H20         -3.9600    -6.0140    -0.6200 hc         1 2XJ       0.034033
     53 H21         -5.0020    -4.6080    -0.9430 hc         1 2XJ       0.034033
     54 H22         -4.3310    -5.5480    -2.2940 hc         1 2XJ       0.034033
     55 H23         -2.1320     0.4280    -0.8530 h1         1 2XJ       0.089200
     56 H24         -3.1560    -0.9990    -1.0780 h1         1 2XJ       0.089200
     57 H25         -5.5470     1.2390     2.6110 ha         1 2XJ       0.138000
     58 H26         -6.9480     2.6170    -2.6750 hn         1 2XJ       0.491500
     59 H27         -5.5380     1.6730    -3.0190 hn         1 2XJ       0.491500
     60 H28         -8.2180     3.5100     1.5210 hn         1 2XJ       0.489000
     61 H29         -7.4210     2.8110     2.8900 hn         1 2XJ       0.489000
@<TRIPOS>BOND
     1     1     2 1   
     2     1    33 1   
     3     1    34 1   
     4     1    35 1   
     5     2     3 1   
     6     2     4 1   
     7     2     5 1   
     8     3    36 1   
     9     3    37 1   
    10     3    38 1   
    11     4    39 1   
    12     5     6 1   
    13     5    40 1   
    14     5    41 1   
    15     6     7 1   
    16     7     8 ar  
    17     7     9 ar  
    18     8    14 ar  
    19     8    42 1   
    20     9    10 1   
    21     9    12 ar  
    22    10    11 1   
    23    11    43 1   
    24    11    44 1   
    25    11    45 1   
    26    12    13 ar  
    27    12    46 1   
    28    13    14 ar  
    29    13    47 1   
    30    14    15 1   
    31    15    16 2   
    32    15    17 1   
    33    16    22 1   
    34    17    18 1   
    35    18    19 1   
    36    18    22 2   
    37    19    20 1   
    38    19    48 1   
    39    19    49 1   
    40    20    21 1   
    41    20    50 1   
    42    20    51 1   
    43    21    52 1   
    44    21    53 1   
    45    21    54 1   
    46    22    23 1   
    47    23    24 1   
    48    23    55 1   
    49    23    56 1   
    50    24    25 1   
    51    25    26 ar  
    52    25    27 ar  
    53    26    31 ar  
    54    26    57 1   
    55    27    28 ar  
    56    28    29 1   
    57    28    30 ar  
    58    29    58 1   
    59    29    59 1   
    60    30    31 ar  
    61    31    32 1   
    62    32    60 1   
    63    32    61 1   
@<TRIPOS>SUBSTRUCTURE
     1 2XJ         1 TEMP              0 ****  ****    0 ROOT
