@<TRIPOS>MOLECULE
2XJ
   61    63     1     0     0
SMALL
abcg2


@<TRIPOS>ATOM
      1 CAC          5.1470     3.9940     0.9490 c3         1 2XJ      -0.103100
      2 CBF          4.3100     3.7630    -0.3030 c3         1 2XJ       0.189000
      3 CAD          3.2990     4.8950    -0.4770 c3         1 2XJ      -0.103100
      4 OAG          5.2160     3.7260    -1.3910 oh         1 2XJ      -0.643000
      5 CAN          3.5340     2.4500    -0.2110 c3         1 2XJ       0.129600
      6 OAT          4.4520     1.3900    -0.0470 os         1 2XJ      -0.313100
      7 CBB          3.9860     0.1350     0.0420 ca         1 2XJ       0.110100
      8 CAK          2.6550    -0.2250    -0.0170 ca         1 2XJ      -0.136000
      9 CBA          4.9750    -0.8630     0.2090 ca         1 2XJ       0.128100
     10 OAS          6.2400    -0.4200     0.2560 os         1 2XJ      -0.313100
     11 CAB          7.2790    -1.3690     0.3980 c3         1 2XJ       0.144900
     12 CAI          4.5890    -2.1890     0.3080 ca         1 2XJ      -0.179000
     13 CAH          3.2450    -2.5410     0.2450 ca         1 2XJ      -0.092000
     14 CAY          2.2700    -1.5700     0.0850 ca         1 2XJ      -0.137500
     15 CBE          0.8500    -1.9030     0.0120 cc         1 2XJ       0.507900
     16 NAR         -0.0870    -1.0460    -0.2430 nd         1 2XJ      -0.639000
     17 SAV          0.2560    -3.5110     0.2740 ss         1 2XJ      -0.036400
     18 CBD         -1.3550    -2.9600     0.0170 cc         1 2XJ      -0.207300
     19 CAM         -2.5220    -3.8890     0.0470 c3         1 2XJ      -0.006100
     20 CAL         -2.7660    -4.5720    -1.3020 c3         1 2XJ      -0.074400
     21 CAA         -3.9380    -5.5400    -1.2520 c3         1 2XJ      -0.090100
     22 CBC         -1.3230    -1.6250    -0.2560 cd         1 2XJ       0.285300
     23 CAO         -2.5190    -0.7840    -0.5440 c3         1 2XJ       0.039300
     24 SAU         -3.0250     0.0140     1.0140 ss         1 2XJ      -0.365300
     25 C4          -4.2810     1.1250     0.4870 ca         1 2XJ       0.298300
     26 C5          -4.8610     1.9400     1.4400 ca         1 2XJ      -0.341000
     27 N3          -4.6170     1.1340    -0.7950 nb         1 2XJ      -0.309000
     28 C2          -5.5750     2.0040    -1.1360 ca         1 2XJ       0.424900
     29 NAF         -5.8990     2.0600    -2.4440 nv         1 2XJ      -1.062900
     30 N1          -6.2130     2.8360    -0.3180 nb         1 2XJ      -0.335000
     31 C6          -5.8620     2.8060     0.9690 ca         1 2XJ       0.423900
     32 NAE         -6.5270     3.6240     1.8040 nv         1 2XJ      -1.072900
     33 H1           4.5160     3.9940     1.8380 hc         1 2XJ       0.046033
     34 H2           5.9090     3.2250     1.0760 hc         1 2XJ       0.046033
     35 H3           5.6470     4.9620     0.8980 hc         1 2XJ       0.046033
     36 H4           3.8120     5.8540    -0.5530 hc         1 2XJ       0.046033
     37 H5           2.6990     4.7610    -1.3800 hc         1 2XJ       0.046033
     38 H6           2.6130     4.9490     0.3690 hc         1 2XJ       0.046033
     39 H7           4.7110     3.6860    -2.2110 ho         1 2XJ       0.438000
     40 H8           2.8350     2.4940     0.6330 h1         1 2XJ       0.038200
     41 H9           2.9390     2.3050    -1.1230 h1         1 2XJ       0.038200
     42 H10          1.8850     0.5240    -0.1370 ha         1 2XJ       0.143000
     43 H11          7.2000    -1.9250     1.3350 h1         1 2XJ       0.040700
     44 H12          7.3020    -2.0760    -0.4340 h1         1 2XJ       0.040700
     45 H13          8.2090    -0.8060     0.4050 h1         1 2XJ       0.040700
     46 H14          5.3240    -2.9720     0.4300 ha         1 2XJ       0.121000
     47 H15          2.9870    -3.5900     0.3180 ha         1 2XJ       0.115000
     48 H16         -2.3750    -4.6480     0.8200 hc         1 2XJ       0.057700
     49 H17         -3.4100    -3.3270     0.3450 hc         1 2XJ       0.057700
     50 H18         -2.9420    -3.8070    -2.0620 hc         1 2XJ       0.043700
     51 H19         -1.8600    -5.1020    -1.6050 hc         1 2XJ       0.043700
     52 H20         -3.7710    -6.3220    -0.5090 hc         1 2XJ       0.034033
     53 H21         -4.8670    -5.0290    -0.9930 hc         1 2XJ       0.034033
     54 H22         -4.0870    -6.0260    -2.2160 hc         1 2XJ       0.034033
     55 H23         -2.2800    -0.0130    -1.2740 h1         1 2XJ       0.089200
     56 H24         -3.3450    -1.3760    -0.9330 h1         1 2XJ       0.089200
     57 H25         -4.5680     1.9190     2.4800 ha         1 2XJ       0.138000
     58 H26         -6.7380     2.5430    -2.7140 hn         1 2XJ       0.491500
     59 H27         -5.5840     1.3210    -3.0490 hn         1 2XJ       0.491500
     60 H28         -7.1030     4.3500     1.4140 hn         1 2XJ       0.489000
     61 H29         -6.1900     3.7680     2.7400 hn         1 2XJ       0.489000
@<TRIPOS>BOND
     1     1     2 1   
     2     1    33 1   
     3     1    34 1   
     4     1    35 1   
     5     2     3 1   
     6     2     4 1   
     7     2     5 1   
     8     3    36 1   
     9     3    37 1   
    10     3    38 1   
    11     4    39 1   
    12     5     6 1   
    13     5    40 1   
    14     5    41 1   
    15     6     7 1   
    16     7     8 ar  
    17     7     9 ar  
    18     8    14 ar  
    19     8    42 1   
    20     9    10 1   
    21     9    12 ar  
    22    10    11 1   
    23    11    43 1   
    24    11    44 1   
    25    11    45 1   
    26    12    13 ar  
    27    12    46 1   
    28    13    14 ar  
    29    13    47 1   
    30    14    15 1   
    31    15    16 2   
    32    15    17 1   
    33    16    22 1   
    34    17    18 1   
    35    18    19 1   
    36    18    22 2   
    37    19    20 1   
    38    19    48 1   
    39    19    49 1   
    40    20    21 1   
    41    20    50 1   
    42    20    51 1   
    43    21    52 1   
    44    21    53 1   
    45    21    54 1   
    46    22    23 1   
    47    23    24 1   
    48    23    55 1   
    49    23    56 1   
    50    24    25 1   
    51    25    26 ar  
    52    25    27 ar  
    53    26    31 ar  
    54    26    57 1   
    55    27    28 ar  
    56    28    29 1   
    57    28    30 ar  
    58    29    58 1   
    59    29    59 1   
    60    30    31 ar  
    61    31    32 1   
    62    32    60 1   
    63    32    61 1   
@<TRIPOS>SUBSTRUCTURE
     1 2XJ         1 TEMP              0 ****  ****    0 ROOT
