@<TRIPOS>MOLECULE
2XK
   38    39     1     0     0
SMALL
No Charge or Current Charge


@<TRIPOS>ATOM
      1 C10         -4.5310     0.4280     1.0310 ca         1 2XK      -0.085000
      2 C15         -3.1750    -0.4760    -1.2550 ca         1 2XK      -0.068500
      3 C17          1.4760     0.7770     0.4310 ca         1 2XK      -0.171200
      4 C01          4.0520    -3.6790     0.1920 c3         1 2XK       0.141900
      5 C03          3.3780    -1.2970     0.1090 ca         1 2XK       0.169100
      6 C04          2.0710    -1.5860     0.5560 ca         1 2XK      -0.198000
      7 C05          1.1140    -0.5650     0.7230 ca         1 2XK       0.019700
      8 C06         -0.2670    -0.9620     1.2540 c3         1 2XK      -0.127100
      9 C07         -1.2360    -1.3360     0.1180 c          1 2XK       0.603700
     10 C08         -2.5830    -0.6530     0.0150 ca         1 2XK      -0.141600
     11 C09         -3.2810    -0.2030     1.1600 ca         1 2XK      -0.068500
     12 C11         -5.1060     0.6130    -0.2400 ca         1 2XK       0.008000
     13 C12         -6.3850     1.2590    -0.3700 cg         1 2XK       0.318000
     14 N13         -7.4270     1.7760    -0.4710 n1         1 2XK      -0.443000
     15 C14         -4.4240     0.1560    -1.3820 ca         1 2XK      -0.085000
     16 O16         -0.9330    -2.2160    -0.6810 o          1 2XK      -0.510100
     17 C18          2.7900     1.0670    -0.0070 ca         1 2XK      -0.120000
     18 C19          3.7420     0.0380    -0.1720 ca         1 2XK       0.106100
     19 O20          5.0340     0.2970    -0.6060 os         1 2XK      -0.316100
     20 O23         -0.6020     1.7910     0.0500 o          1 2XK      -0.409000
     21 O24          0.9350     2.9690     1.0510 o          1 2XK      -0.409000
     22 H1          -5.0550     0.7680     1.9220 ha         1 2XK       0.129500
     23 H2          -2.6610    -0.8190    -2.1510 ha         1 2XK       0.129500
     24 H3           4.9100     2.0650    -1.7270 h1         1 2XK       0.047700
     25 H4           5.4340     2.2750    -0.0340 h1         1 2XK       0.047700
     26 H5           6.5490     1.5910    -1.2350 h1         1 2XK       0.047700
     27 H6           3.2410    -4.0410    -0.4520 h1         1 2XK       0.048367
     28 H7           4.9420    -4.2870    -0.0110 h1         1 2XK       0.048367
     29 H8           3.7670    -3.8350     1.2410 h1         1 2XK       0.048367
     30 H9           1.7800    -2.6070     0.7830 ha         1 2XK       0.128000
     31 H10         -0.1740    -1.8410     1.9010 hc         1 2XK       0.079200
     32 H11         -0.6850    -0.1670     1.8770 hc         1 2XK       0.079200
     33 H12         -2.8760    -0.3510     2.1580 ha         1 2XK       0.129500
     34 H13         -4.8600     0.2890    -2.3710 ha         1 2XK       0.129500
     35 H14          3.0520     2.1000    -0.2240 ha         1 2XK       0.158000
     36 N22          0.5100     1.9080     0.5760 no         1 2XK       0.701200
     37 C21          5.5000     1.6230    -0.9140 c3         1 2XK       0.140900
     38 O02          4.3280    -2.2910    -0.0620 os         1 2XK      -0.308100
@<TRIPOS>BOND
     1     1    11 ar  
     2     1    12 ar  
     3     1    22 1   
     4     2    10 ar  
     5     2    15 ar  
     6     2    23 1   
     7     3     7 ar  
     8     3    17 ar  
     9     3    36 1   
    10     4    27 1   
    11     4    28 1   
    12     4    29 1   
    13     4    38 1   
    14     5     6 ar  
    15     5    18 ar  
    16     5    38 1   
    17     6     7 ar  
    18     6    30 1   
    19     7     8 1   
    20     8     9 1   
    21     8    31 1   
    22     8    32 1   
    23     9    10 1   
    24     9    16 2   
    25    10    11 ar  
    26    11    33 1   
    27    12    13 1   
    28    12    15 ar  
    29    13    14 3   
    30    15    34 1   
    31    17    18 ar  
    32    17    35 1   
    33    18    19 1   
    34    19    37 1   
    35    20    36 1   
    36    21    36 1   
    37    24    37 1   
    38    25    37 1   
    39    26    37 1   
@<TRIPOS>SUBSTRUCTURE
     1 2XK         1 TEMP              0 ****  ****    0 ROOT
