@<TRIPOS>MOLECULE
2XK
   38    39     1     0     0
SMALL
bcc


@<TRIPOS>ATOM
      1 C10         -4.6060    -0.3310     1.1680 ca         1 2XK      -0.103000
      2 C15         -3.4530     0.1090    -1.3270 ca         1 2XK      -0.086500
      3 C17          1.7290     0.9310     0.0990 ca         1 2XK      -0.171200
      4 C01          3.7390    -3.5950     0.7010 c3         1 2XK       0.118700
      5 C03          3.3650    -1.3000     0.2600 ca         1 2XK       0.169100
      6 C04          2.0060    -1.3890     0.5160 ca         1 2XK      -0.216000
      7 C05          1.1540    -0.2890     0.4450 ca         1 2XK       0.019700
      8 C06         -0.2940    -0.5160     0.7620 c3         1 2XK      -0.127100
      9 C07         -1.1820    -0.4010    -0.4570 c          1 2XK       0.603700
     10 C08         -2.6510    -0.2440    -0.2410 ca         1 2XK      -0.141600
     11 C09         -3.2380    -0.4600     1.0040 ca         1 2XK      -0.086500
     12 C11         -5.3930     0.0320     0.0790 ca         1 2XK       0.008000
     13 C12         -6.8050     0.1770     0.2440 cg         1 2XK       0.228800
     14 N13         -7.9430     0.2940     0.3780 n1         1 2XK      -0.353800
     15 C14         -4.8170     0.2560    -1.1720 ca         1 2XK      -0.103000
     16 O16         -0.7310    -0.4740    -1.5760 o          1 2XK      -0.510100
     17 C18          3.0990     1.0490    -0.1650 ca         1 2XK      -0.138000
     18 C19          3.9220    -0.0490    -0.0930 ca         1 2XK       0.106100
     19 O20          5.2400    -0.0450    -0.3280 os         1 2XK      -0.292900
     20 O23         -0.2590     2.0760     0.0790 o          1 2XK      -0.219000
     21 O24          1.5360     3.1920    -0.1590 o          1 2XK      -0.219000
     22 H1          -5.0570    -0.5090     2.1340 ha         1 2XK       0.147500
     23 H2          -3.0080     0.2790    -2.2970 ha         1 2XK       0.147500
     24 H3           5.4680     1.5960    -1.5950 h1         1 2XK       0.047700
     25 H4           5.7290     1.9280     0.1330 h1         1 2XK       0.047700
     26 H5           6.9160     0.9760    -0.7800 h1         1 2XK       0.047700
     27 H6           3.0010    -3.9770    -0.0070 h1         1 2XK       0.048367
     28 H7           4.6010    -4.2560     0.7040 h1         1 2XK       0.048367
     29 H8           3.3020    -3.5750     1.7010 h1         1 2XK       0.048367
     30 H9           1.5750    -2.3420     0.7880 ha         1 2XK       0.146000
     31 H10         -0.4130    -1.5340     1.1470 hc         1 2XK       0.079200
     32 H11         -0.6400     0.1420     1.5600 hc         1 2XK       0.079200
     33 H12         -2.6420    -0.7420     1.8610 ha         1 2XK       0.147500
     34 H13         -5.4340     0.5410    -2.0130 ha         1 2XK       0.147500
     35 H14          3.5020     2.0140    -0.4310 ha         1 2XK       0.176000
     36 N22          0.9500     2.1440     0.0010 no         1 2XK       0.321200
     37 C21          5.8560     1.1860    -0.6590 c3         1 2XK       0.117700
     38 O02          4.2210    -2.3160     0.3180 os         1 2XK      -0.284900
@<TRIPOS>BOND
     1     1    11 ar  
     2     1    12 ar  
     3     1    22 1   
     4     2    10 ar  
     5     2    15 ar  
     6     2    23 1   
     7     3     7 ar  
     8     3    17 ar  
     9     3    36 1   
    10     4    27 1   
    11     4    28 1   
    12     4    29 1   
    13     4    38 1   
    14     5     6 ar  
    15     5    18 ar  
    16     5    38 1   
    17     6     7 ar  
    18     6    30 1   
    19     7     8 1   
    20     8     9 1   
    21     8    31 1   
    22     8    32 1   
    23     9    10 1   
    24     9    16 2   
    25    10    11 ar  
    26    11    33 1   
    27    12    13 1   
    28    12    15 ar  
    29    13    14 3   
    30    15    34 1   
    31    17    18 ar  
    32    17    35 1   
    33    18    19 1   
    34    19    37 1   
    35    20    36 1   
    36    21    36 1   
    37    24    37 1   
    38    25    37 1   
    39    26    37 1   
@<TRIPOS>SUBSTRUCTURE
     1 2XK         1 TEMP              0 ****  ****    0 ROOT
