@<TRIPOS>MOLECULE
2XL
   48    50     1     0     0
SMALL
abcg2


@<TRIPOS>ATOM
      1 CAB          8.0840    -1.1410    -0.2340 c3         1 2XL       0.156900
      2 OAP          6.8960    -1.7580     0.2270 os         1 2XL      -0.364100
      3 CAX          5.7360    -1.0860     0.1210 ca         1 2XL       0.059100
      4 CAU          4.6050    -1.7800     0.5930 ca         1 2XL       0.114100
      5 CAI          3.3630    -1.1840     0.5370 ca         1 2XL      -0.082000
      6 OAE          4.7130    -3.0220     1.1020 oh         1 2XL      -0.531100
      7 CAG          5.5860     0.1900    -0.3970 ca         1 2XL      -0.159000
      8 CAF          4.3310     0.7830    -0.4490 ca         1 2XL      -0.098000
      9 CAV          3.2110     0.1070     0.0170 ca         1 2XL      -0.129500
     10 CBA          1.8780     0.7030    -0.0150 cc         1 2XL       0.501900
     11 NAO          0.7960     0.0900     0.3500 nd         1 2XL      -0.631000
     12 SAR          1.6000     2.3320    -0.5430 ss         1 2XL      -0.037400
     13 CAZ         -0.0850     2.1420    -0.2440 cc         1 2XL      -0.203300
     14 CAK         -1.0590     3.2530    -0.4450 c3         1 2XL      -0.008100
     15 CAJ         -1.0300     4.2770     0.6920 c3         1 2XL      -0.074400
     16 CAA         -2.0770     5.3660     0.5130 c3         1 2XL      -0.090100
     17 CAY         -0.3070     0.8850     0.2380 cd         1 2XL       0.286300
     18 CAL         -1.6460     0.3430     0.6110 c3         1 2XL       0.024300
     19 SAQ         -2.3730    -0.4060    -0.8810 ss         1 2XL      -0.313300
     20 C2          -3.9310    -0.9930    -0.3070 ca         1 2XL       0.312300
     21 N3          -4.2430    -0.8160     0.9570 nb         1 2XL      -0.294500
     22 N1          -4.6410    -1.5710    -1.2580 nb         1 2XL      -0.294500
     23 C6          -5.8430    -2.0390    -0.8850 ca         1 2XL       0.412400
     24 NAC         -6.5970    -2.6000    -1.8500 nv         1 2XL      -1.068900
     25 C5          -6.2960    -1.9210     0.4290 ca         1 2XL      -0.387000
     26 C4          -5.4480    -1.2880     1.3340 ca         1 2XL       0.412400
     27 NAD         -5.7940    -1.0850     2.6200 nv         1 2XL      -1.068900
     28 H1           8.2950    -0.2170     0.3080 h1         1 2XL       0.043367
     29 H2           8.8890    -1.8480    -0.0550 h1         1 2XL       0.043367
     30 H3           8.0340    -0.9220    -1.3040 h1         1 2XL       0.043367
     31 H4           2.5010    -1.7240     0.9060 ha         1 2XL       0.155000
     32 H5           5.6350    -3.3070     1.0980 ho         1 2XL       0.480000
     33 H6           6.4410     0.7400    -0.7680 ha         1 2XL       0.119000
     34 H7           4.2520     1.7800    -0.8630 ha         1 2XL       0.117000
     35 H8          -0.8680     3.7540    -1.3970 hc         1 2XL       0.060200
     36 H9          -2.0610     2.8240    -0.5290 hc         1 2XL       0.060200
     37 H10         -1.1910     3.7600     1.6410 hc         1 2XL       0.043200
     38 H11         -0.0340     4.7240     0.7510 hc         1 2XL       0.043200
     39 H12         -3.0820     4.9430     0.4750 hc         1 2XL       0.034700
     40 H13         -2.0470     6.0770     1.3390 hc         1 2XL       0.034700
     41 H14         -1.9180     5.9240    -0.4110 hc         1 2XL       0.034700
     42 H15         -1.5480    -0.4130     1.3870 h1         1 2XL       0.088200
     43 H16         -2.3070     1.1270     0.9770 h1         1 2XL       0.088200
     44 H17         -6.1630    -2.8300    -2.7270 hn         1 2XL       0.486500
     45 H18         -7.4200    -3.1220    -1.6030 hn         1 2XL       0.486500
     46 H19         -7.2610    -2.3050     0.7310 ha         1 2XL       0.124000
     47 H20         -6.5810    -1.5770     3.0050 hn         1 2XL       0.486500
     48 H21         -5.0740    -0.8160     3.2700 hn         1 2XL       0.486500
@<TRIPOS>BOND
     1     1     2 1   
     2     1    28 1   
     3     1    29 1   
     4     1    30 1   
     5     2     3 1   
     6     3     4 ar  
     7     3     7 ar  
     8     4     5 ar  
     9     4     6 1   
    10     5     9 ar  
    11     5    31 1   
    12     6    32 1   
    13     7     8 ar  
    14     7    33 1   
    15     8     9 ar  
    16     8    34 1   
    17     9    10 1   
    18    10    11 2   
    19    10    12 1   
    20    11    17 1   
    21    12    13 1   
    22    13    14 1   
    23    13    17 2   
    24    14    15 1   
    25    14    35 1   
    26    14    36 1   
    27    15    16 1   
    28    15    37 1   
    29    15    38 1   
    30    16    39 1   
    31    16    40 1   
    32    16    41 1   
    33    17    18 1   
    34    18    19 1   
    35    18    42 1   
    36    18    43 1   
    37    19    20 1   
    38    20    21 ar  
    39    20    22 ar  
    40    21    26 ar  
    41    22    23 ar  
    42    23    24 1   
    43    23    25 ar  
    44    24    44 1   
    45    24    45 1   
    46    25    26 ar  
    47    25    46 1   
    48    26    27 1   
    49    27    47 1   
    50    27    48 1   
@<TRIPOS>SUBSTRUCTURE
     1 2XL         1 TEMP              0 ****  ****    0 ROOT
