@<TRIPOS>MOLECULE
2XL
   48    50     1     0     0
SMALL
No Charge or Current Charge


@<TRIPOS>ATOM
      1 CAB          8.3720    -1.0050    -0.0650 c3         1 2XL       0.156900
      2 OAP          7.1510    -1.6890     0.2770 os         1 2XL      -0.364100
      3 CAX          5.9120    -1.0790     0.1850 ca         1 2XL       0.059100
      4 CAU          4.7720    -1.8260     0.5410 ca         1 2XL       0.114100
      5 CAI          3.4930    -1.2540     0.4650 ca         1 2XL      -0.082000
      6 OAE          4.9170    -3.1170     0.9630 oh         1 2XL      -0.531100
      7 CAG          5.7530     0.2540    -0.2500 ca         1 2XL      -0.159000
      8 CAF          4.4700     0.8260    -0.3250 ca         1 2XL      -0.098000
      9 CAV          3.3190     0.0830     0.0310 ca         1 2XL      -0.129500
     10 CBA          1.9670     0.6730    -0.0440 cc         1 2XL       0.501900
     11 NAO          0.8730    -0.0020     0.2900 nd         1 2XL      -0.631000
     12 SAR          1.7020     2.3180    -0.5790 ss         1 2XL      -0.037400
     13 CAZ         -0.0010     2.0680    -0.3330 cc         1 2XL      -0.203300
     14 CAK         -0.9890     3.1710    -0.6170 c3         1 2XL      -0.008100
     15 CAJ         -1.2260     4.0780     0.6080 c3         1 2XL      -0.074400
     16 CAA         -2.2440     5.2040     0.3400 c3         1 2XL      -0.090100
     17 CAY         -0.2530     0.7910     0.1230 cd         1 2XL       0.286300
     18 CAL         -1.6120     0.2230     0.4480 c3         1 2XL       0.024300
     19 SAQ         -2.5860    -0.3000    -1.0430 ss         1 2XL      -0.313300
     20 C2          -4.1420    -0.8830    -0.3750 ca         1 2XL       0.312300
     21 N3          -4.3120    -0.8540     0.9640 nb         1 2XL      -0.294500
     22 N1          -5.0490    -1.3170    -1.2730 nb         1 2XL      -0.294500
     23 C6          -6.2110    -1.7520    -0.7780 ca         1 2XL       0.412400
     24 NAC         -7.1190    -2.1880    -1.6790 nv         1 2XL      -1.068900
     25 C5          -6.4900    -1.7660     0.5820 ca         1 2XL      -0.387000
     26 C4          -5.4870    -1.2960     1.4200 ca         1 2XL       0.412400
     27 NAD         -5.6580    -1.2680     2.7600 nv         1 2XL      -1.068900
     28 H1           8.5150    -0.1210     0.5690 h1         1 2XL       0.043367
     29 H2           9.2330    -1.6690     0.0800 h1         1 2XL       0.043367
     30 H3           8.3600    -0.6880    -1.1160 h1         1 2XL       0.043367
     31 H4           2.6350    -1.8590     0.7480 ha         1 2XL       0.155000
     32 H5           5.8810    -3.3110     0.9400 ho         1 2XL       0.480000
     33 H6           6.6090     0.8610    -0.5320 ha         1 2XL       0.119000
     34 H7           4.3880     1.8560    -0.6640 ha         1 2XL       0.117000
     35 H8          -0.6270     3.7840    -1.4520 hc         1 2XL       0.060200
     36 H9          -1.9460     2.7460    -0.9440 hc         1 2XL       0.060200
     37 H10         -1.5820     3.4680     1.4470 hc         1 2XL       0.043200
     38 H11         -0.2730     4.5230     0.9190 hc         1 2XL       0.043200
     39 H12         -3.2190     4.7880     0.0620 hc         1 2XL       0.034700
     40 H13         -2.3770     5.8200     1.2380 hc         1 2XL       0.034700
     41 H14         -1.8980     5.8540    -0.4730 hc         1 2XL       0.034700
     42 H15         -1.4870    -0.6430     1.1090 h1         1 2XL       0.088200
     43 H16         -2.1850     0.9810     0.9970 h1         1 2XL       0.088200
     44 H17         -6.8070    -2.3580    -2.6320 hn         1 2XL       0.486500
     45 H18         -7.9110    -2.7360    -1.3510 hn         1 2XL       0.486500
     46 H19         -7.4400    -2.1200     0.9680 ha         1 2XL       0.124000
     47 H20         -6.4260    -1.7970     3.1650 hn         1 2XL       0.486500
     48 H21         -4.8430    -1.1200     3.3500 hn         1 2XL       0.486500
@<TRIPOS>BOND
     1     1     2 1   
     2     1    28 1   
     3     1    29 1   
     4     1    30 1   
     5     2     3 1   
     6     3     4 ar  
     7     3     7 ar  
     8     4     5 ar  
     9     4     6 1   
    10     5     9 ar  
    11     5    31 1   
    12     6    32 1   
    13     7     8 ar  
    14     7    33 1   
    15     8     9 ar  
    16     8    34 1   
    17     9    10 1   
    18    10    11 2   
    19    10    12 1   
    20    11    17 1   
    21    12    13 1   
    22    13    14 1   
    23    13    17 2   
    24    14    15 1   
    25    14    35 1   
    26    14    36 1   
    27    15    16 1   
    28    15    37 1   
    29    15    38 1   
    30    16    39 1   
    31    16    40 1   
    32    16    41 1   
    33    17    18 1   
    34    18    19 1   
    35    18    42 1   
    36    18    43 1   
    37    19    20 1   
    38    20    21 ar  
    39    20    22 ar  
    40    21    26 ar  
    41    22    23 ar  
    42    23    24 1   
    43    23    25 ar  
    44    24    44 1   
    45    24    45 1   
    46    25    26 ar  
    47    25    46 1   
    48    26    27 1   
    49    27    47 1   
    50    27    48 1   
@<TRIPOS>SUBSTRUCTURE
     1 2XL         1 TEMP              0 ****  ****    0 ROOT
