@<TRIPOS>MOLECULE
2XM
   59    61     1     0     0
SMALL
No Charge or Current Charge


@<TRIPOS>ATOM
      1 OAE          4.9150    -4.3850     1.9560 oh         1 2XM      -0.646000
      2 CAL          4.1450    -4.3800     0.7400 c3         1 2XM       0.163600
      3 CAN          3.3630    -3.0540     0.5690 c3         1 2XM       0.157600
      4 OAU          4.3030    -1.9820     0.3510 os         1 2XM      -0.315100
      5 CBC          3.9060    -0.6670     0.1560 ca         1 2XM       0.113100
      6 CAI          2.5430    -0.2890     0.1740 ca         1 2XM      -0.134000
      7 CBB          4.9020     0.3120    -0.0630 ca         1 2XM       0.134100
      8 OAT          6.2300    -0.0810    -0.0780 os         1 2XM      -0.307100
      9 CAM          7.3110     0.8520    -0.2820 c3         1 2XM       0.158600
     10 CAK          8.6540     0.0820    -0.2330 c3         1 2XM       0.164600
     11 OAD          8.7910    -0.8120    -1.3530 oh         1 2XM      -0.645000
     12 CAG          4.5210     1.6560    -0.2620 ca         1 2XM      -0.183000
     13 CAF          3.1650     2.0230    -0.2430 ca         1 2XM      -0.092000
     14 CAZ          2.1550     1.0590    -0.0260 ca         1 2XM      -0.137500
     15 CBF          0.7260     1.4390    -0.0040 cc         1 2XM       0.508900
     16 NAS         -0.2460     0.5590     0.2090 nd         1 2XM      -0.641000
     17 SAW          0.2010     3.0900    -0.2560 ss         1 2XM      -0.038400
     18 CBE         -1.4390     2.5440    -0.0620 cc         1 2XM      -0.206300
     19 CAO         -2.5890     3.5140    -0.1600 c3         1 2XM      -0.007100
     20 CAJ         -2.9320     4.1590     1.1990 c3         1 2XM      -0.074400
     21 CAA         -4.1140     5.1440     1.1210 c3         1 2XM      -0.090100
     22 CBD         -1.4830     1.1860     0.1730 cd         1 2XM       0.287300
     23 CAP         -2.7330     0.3700     0.3940 c3         1 2XM       0.025300
     24 SAV         -3.6490    -0.0440    -1.1660 ss         1 2XM      -0.315300
     25 C2          -5.0830    -0.9590    -0.6090 ca         1 2XM       0.314300
     26 N3          -5.9350    -1.3720    -1.5700 nb         1 2XM      -0.300000
     27 N1          -5.2260    -1.1790     0.7150 nb         1 2XM      -0.300000
     28 C6          -6.3100    -1.8650     1.0870 ca         1 2XM       0.422400
     29 NAB         -6.4520    -2.0860     2.4110 nv         1 2XM      -1.081400
     30 C5          -7.2490    -2.3360     0.1800 ca         1 2XM      -0.396000
     31 C4          -7.0060    -2.0540    -1.1570 ca         1 2XM       0.422400
     32 NAC         -7.8580    -2.4690    -2.1190 nv         1 2XM      -1.081400
     33 H1           5.4140    -5.2320     1.9750 ho         1 2XM       0.441000
     34 H2           4.8000    -4.5240    -0.1310 h1         1 2XM       0.028700
     35 H3           3.4250    -5.2100     0.7500 h1         1 2XM       0.028700
     36 H4           2.6870    -3.1510    -0.2900 h1         1 2XM       0.044700
     37 H5           2.7580    -2.8710     1.4670 h1         1 2XM       0.044700
     38 H6           1.7740    -1.0370     0.3420 ha         1 2XM       0.143000
     39 H7           7.2160     1.3570    -1.2520 h1         1 2XM       0.041200
     40 H8           7.3110     1.6140     0.5080 h1         1 2XM       0.041200
     41 H9           9.4740     0.8130    -0.2350 h1         1 2XM       0.028700
     42 H10          8.7130    -0.4750     0.7120 h1         1 2XM       0.028700
     43 H11          9.6410    -1.2910    -1.2340 ho         1 2XM       0.442000
     44 H12          5.2610     2.4330    -0.4330 ha         1 2XM       0.119000
     45 H13          2.9160     3.0700    -0.4000 ha         1 2XM       0.114000
     46 H14         -2.3440     4.3040    -0.8800 hc         1 2XM       0.058700
     47 H15         -3.4780     3.0060    -0.5550 hc         1 2XM       0.058700
     48 H16         -3.1710     3.3710     1.9240 hc         1 2XM       0.043200
     49 H17         -2.0500     4.6870     1.5820 hc         1 2XM       0.043200
     50 H18         -5.0220     4.6350     0.7750 hc         1 2XM       0.033700
     51 H19         -4.3180     5.5760     2.1080 hc         1 2XM       0.033700
     52 H20         -3.8900     5.9650     0.4280 hc         1 2XM       0.033700
     53 H21         -2.4630    -0.5640     0.9020 h1         1 2XM       0.086700
     54 H22         -3.4020     0.9300     1.0600 h1         1 2XM       0.086700
     55 H23         -5.6490    -1.9200     3.0130 hn         1 2XM       0.492500
     56 H24         -7.1150    -2.7910     2.7210 hn         1 2XM       0.492500
     57 H25         -8.1250    -2.8900     0.4990 ha         1 2XM       0.123000
     58 H26         -8.5440    -3.1820    -1.8850 hn         1 2XM       0.492500
     59 H27         -7.5460    -2.4350    -3.0870 hn         1 2XM       0.492500
@<TRIPOS>BOND
     1     1     2 1   
     2     1    33 1   
     3     2     3 1   
     4     2    34 1   
     5     2    35 1   
     6     3     4 1   
     7     3    36 1   
     8     3    37 1   
     9     4     5 1   
    10     5     6 ar  
    11     5     7 ar  
    12     6    14 ar  
    13     6    38 1   
    14     7     8 1   
    15     7    12 ar  
    16     8     9 1   
    17     9    10 1   
    18     9    39 1   
    19     9    40 1   
    20    10    11 1   
    21    10    41 1   
    22    10    42 1   
    23    11    43 1   
    24    12    13 ar  
    25    12    44 1   
    26    13    14 ar  
    27    13    45 1   
    28    14    15 1   
    29    15    16 2   
    30    15    17 1   
    31    16    22 1   
    32    17    18 1   
    33    18    19 1   
    34    18    22 2   
    35    19    20 1   
    36    19    46 1   
    37    19    47 1   
    38    20    21 1   
    39    20    48 1   
    40    20    49 1   
    41    21    50 1   
    42    21    51 1   
    43    21    52 1   
    44    22    23 1   
    45    23    24 1   
    46    23    53 1   
    47    23    54 1   
    48    24    25 1   
    49    25    26 ar  
    50    25    27 ar  
    51    26    31 ar  
    52    27    28 ar  
    53    28    29 1   
    54    28    30 ar  
    55    29    55 1   
    56    29    56 1   
    57    30    31 ar  
    58    30    57 1   
    59    31    32 1   
    60    32    58 1   
    61    32    59 1   
@<TRIPOS>SUBSTRUCTURE
     1 2XM         1 TEMP              0 ****  ****    0 ROOT
