@<TRIPOS>MOLECULE
2XM
   59    61     1     0     0
SMALL
bcc


@<TRIPOS>ATOM
      1 OAE          4.8850    -4.0720     2.0450 oh         1 2XM      -0.583800
      2 CAL          4.0240    -4.2090     0.9410 c3         1 2XM       0.140400
      3 CAN          3.2880    -2.9140     0.7170 c3         1 2XM       0.134400
      4 OAU          4.2270    -1.9200     0.3440 os         1 2XM      -0.291900
      5 CBC          3.7880    -0.6680     0.1360 ca         1 2XM       0.113100
      6 CAI          2.4670    -0.2740     0.1990 ca         1 2XM      -0.152000
      7 CBB          4.7900     0.2810    -0.1680 ca         1 2XM       0.134100
      8 OAT          6.0430    -0.1940    -0.2050 os         1 2XM      -0.283900
      9 CAM          7.0980     0.7000    -0.5190 c3         1 2XM       0.135400
     10 CAK          8.3990    -0.0580    -0.4710 c3         1 2XM       0.141400
     11 OAD          8.4110    -1.0300    -1.4890 oh         1 2XM      -0.582800
     12 CAG          4.4260     1.5980    -0.3960 ca         1 2XM      -0.201000
     13 CAF          3.0930     1.9870    -0.3250 ca         1 2XM      -0.110000
     14 CAZ          2.1040     1.0620    -0.0300 ca         1 2XM      -0.137500
     15 CBF          0.6950     1.4330     0.0510 cc         1 2XM       0.508900
     16 NAS         -0.2690     0.5980     0.2830 nd         1 2XM      -0.641000
     17 SAW          0.1490     3.0660    -0.1590 ss         1 2XM      -0.183300
     18 CBE         -1.4780     2.5560     0.0800 cc         1 2XM      -0.126700
     19 CAO         -2.6180     3.5180     0.0730 c3         1 2XM      -0.007100
     20 CAJ         -2.8360     4.1840     1.4340 c3         1 2XM      -0.074400
     21 CAA         -3.9820     5.1840     1.4080 c3         1 2XM      -0.090100
     22 CBD         -1.4860     1.2120     0.3120 cd         1 2XM       0.352600
     23 CAP         -2.7120     0.4010     0.5620 c3         1 2XM      -0.022600
     24 SAV         -3.3060    -0.2200    -1.0440 ss         1 2XM      -0.267400
     25 C2          -4.7740    -1.0890    -0.6030 ca         1 2XM       0.840300
     26 N3          -5.3890    -1.6150    -1.6450 nb         1 2XM      -0.826000
     27 N1          -5.1200    -1.1320     0.6640 nb         1 2XM      -0.826000
     28 C6          -6.2590    -1.8000     0.9360 ca         1 2XM       0.750700
     29 NAB         -6.6390    -1.8270     2.2270 nv         1 2XM      -0.971000
     30 C5          -7.0080    -2.4030    -0.0700 ca         1 2XM      -0.544600
     31 C4          -6.5250    -2.2830    -1.3750 ca         1 2XM       0.750700
     32 NAC         -7.1710    -2.8170    -2.4220 nv         1 2XM      -0.971000
     33 H1           5.3750    -4.8930     2.1430 ho         1 2XM       0.402000
     34 H2           4.5650    -4.4820     0.0270 h1         1 2XM       0.028700
     35 H3           3.2630    -4.9830     1.1030 h1         1 2XM       0.028700
     36 H4           2.5460    -3.0650    -0.0750 h1         1 2XM       0.044700
     37 H5           2.7510    -2.6160     1.6250 h1         1 2XM       0.044700
     38 H6           1.6870    -0.9880     0.4220 ha         1 2XM       0.161000
     39 H7           6.9500     1.1380    -1.5120 h1         1 2XM       0.041200
     40 H8           7.1430     1.5190     0.2060 h1         1 2XM       0.041200
     41 H9           9.2010     0.6800    -0.5950 h1         1 2XM       0.028700
     42 H10          8.5250    -0.5020     0.5240 h1         1 2XM       0.028700
     43 H11          9.2570    -1.4840    -1.4610 ho         1 2XM       0.403000
     44 H12          5.1710     2.3460    -0.6290 ha         1 2XM       0.137000
     45 H13          2.8540     3.0270    -0.5090 ha         1 2XM       0.132000
     46 H14         -2.4550     4.2850    -0.6880 hc         1 2XM       0.058700
     47 H15         -3.5240     2.9860    -0.2290 hc         1 2XM       0.058700
     48 H16         -3.0270     3.4110     2.1830 hc         1 2XM       0.043200
     49 H17         -1.9140     4.6850     1.7400 hc         1 2XM       0.043200
     50 H18         -4.9250     4.7000     1.1470 hc         1 2XM       0.033700
     51 H19         -4.1120     5.6580     2.3810 hc         1 2XM       0.033700
     52 H20         -3.8000     5.9720     0.6760 hc         1 2XM       0.033700
     53 H21         -2.4850    -0.4400     1.2160 h1         1 2XM       0.086700
     54 H22         -3.4980     0.9920     1.0280 h1         1 2XM       0.086700
     55 H23         -5.9860    -1.5300     2.9310 hn         1 2XM       0.437300
     56 H24         -7.3890    -2.4270     2.5220 hn         1 2XM       0.437300
     57 H25         -7.9220    -2.9390     0.1480 ha         1 2XM       0.141000
     58 H26         -7.9950    -3.3770    -2.2970 hn         1 2XM       0.437300
     59 H27         -6.7690    -2.7650    -3.3410 hn         1 2XM       0.437300
@<TRIPOS>BOND
     1     1     2 1   
     2     1    33 1   
     3     2     3 1   
     4     2    34 1   
     5     2    35 1   
     6     3     4 1   
     7     3    36 1   
     8     3    37 1   
     9     4     5 1   
    10     5     6 ar  
    11     5     7 ar  
    12     6    14 ar  
    13     6    38 1   
    14     7     8 1   
    15     7    12 ar  
    16     8     9 1   
    17     9    10 1   
    18     9    39 1   
    19     9    40 1   
    20    10    11 1   
    21    10    41 1   
    22    10    42 1   
    23    11    43 1   
    24    12    13 ar  
    25    12    44 1   
    26    13    14 ar  
    27    13    45 1   
    28    14    15 1   
    29    15    16 2   
    30    15    17 1   
    31    16    22 1   
    32    17    18 1   
    33    18    19 1   
    34    18    22 2   
    35    19    20 1   
    36    19    46 1   
    37    19    47 1   
    38    20    21 1   
    39    20    48 1   
    40    20    49 1   
    41    21    50 1   
    42    21    51 1   
    43    21    52 1   
    44    22    23 1   
    45    23    24 1   
    46    23    53 1   
    47    23    54 1   
    48    24    25 1   
    49    25    26 ar  
    50    25    27 ar  
    51    26    31 ar  
    52    27    28 ar  
    53    28    29 1   
    54    28    30 ar  
    55    29    55 1   
    56    29    56 1   
    57    30    31 ar  
    58    30    57 1   
    59    31    32 1   
    60    32    58 1   
    61    32    59 1   
@<TRIPOS>SUBSTRUCTURE
     1 2XM         1 TEMP              0 ****  ****    0 ROOT
