@<TRIPOS>MOLECULE
2XN
   59    61     1     0     0
SMALL
abcg2


@<TRIPOS>ATOM
      1 CAD         -9.2050    -0.2850    -0.9330 c3         1 2XN      -0.390100
      2 SBG         -8.3740     0.7760     0.2240 s6         1 2XN       1.202100
      3 OAG         -8.5740     2.1530    -0.2050 o          1 2XN      -0.532000
      4 OAH         -8.7710     0.3780     1.5620 o          1 2XN      -0.532000
      5 NAR         -6.7640     0.4620     0.1000 n7         1 2XN      -0.872300
      6 CAM         -6.0550     0.8020    -1.1270 c3         1 2XN       0.204800
      7 CAN         -4.5660     0.6910    -0.9000 c3         1 2XN       0.157600
      8 OAT         -4.2950    -0.6490    -0.5490 os         1 2XN      -0.343100
      9 CBC         -3.0390    -0.9900    -0.1960 ca         1 2XN       0.108100
     10 CAL         -1.9460    -0.1510    -0.2780 ca         1 2XN      -0.153000
     11 CBB         -2.8840    -2.3070     0.2800 ca         1 2XN       0.128100
     12 OAS         -4.0050    -3.0420     0.3290 os         1 2XN      -0.326100
     13 CAA         -3.9070    -4.3820     0.7620 c3         1 2XN       0.144900
     14 CAJ         -1.6220    -2.7410     0.6540 ca         1 2XN      -0.178000
     15 CAI         -0.5240    -1.8940     0.5640 ca         1 2XN      -0.055000
     16 CAY         -0.6720    -0.5970     0.0980 ca         1 2XN      -0.136500
     17 CBD          0.4960     0.2750     0.0060 cc         1 2XN       0.500900
     18 NAQ          1.6580    -0.0150     0.4990 nd         1 2XN      -0.634000
     19 SAV          0.4610     1.8050    -0.8060 ss         1 2XN      -0.038400
     20 CAZ          2.1240     2.0430    -0.4370 cc         1 2XN      -0.204300
     21 CAB          2.8740     3.2540    -0.8800 c3         1 2XN      -0.017800
     22 CBE          2.5760     0.9620     0.2620 cd         1 2XN       0.289300
     23 CBF          3.9750     0.7890     0.7570 c3         1 2XN       0.046000
     24 CAC          4.0350     0.4490     2.2380 c3         1 2XN      -0.076100
     25 SAU          4.7340    -0.5240    -0.2700 ss         1 2XN      -0.308300
     26 C2           6.4550    -0.1910    -0.1070 ca         1 2XN       0.310300
     27 N3           7.2030    -1.0610    -0.7590 nb         1 2XN      -0.295500
     28 N1           6.8430     0.8440     0.6050 nb         1 2XN      -0.295500
     29 C6           8.1690     1.0400     0.6830 ca         1 2XN       0.411400
     30 NAE          8.5730     2.0790     1.4430 nv         1 2XN      -1.069900
     31 C5           9.0700     0.1990     0.0370 ca         1 2XN      -0.384000
     32 C4           8.5260    -0.8590    -0.6910 ca         1 2XN       0.411400
     33 NAF          9.2990    -1.7160    -1.3910 nv         1 2XN      -1.069900
     34 H1          -8.8800    -0.0580    -1.9460 h1         1 2XN       0.101033
     35 H2          -8.9890    -1.3230    -0.6930 h1         1 2XN       0.101033
     36 H3         -10.2750    -0.1030    -0.8470 h1         1 2XN       0.101033
     37 H4          -6.5190    -0.4470     0.4800 hn         1 2XN       0.500000
     38 H5          -6.3500     0.1690    -1.9710 h1         1 2XN       0.061700
     39 H6          -6.2760     1.8360    -1.3910 h1         1 2XN       0.061700
     40 H7          -4.0440     0.9750    -1.8210 h1         1 2XN       0.049200
     41 H8          -4.2540     1.3750    -0.1040 h1         1 2XN       0.049200
     42 H9          -2.0730     0.8630    -0.6360 ha         1 2XN       0.121000
     43 H10         -4.9100    -4.7990     0.7050 h1         1 2XN       0.042700
     44 H11         -3.2440    -4.9700     0.1230 h1         1 2XN       0.042700
     45 H12         -3.5560    -4.4540     1.7950 h1         1 2XN       0.042700
     46 H13         -1.4690    -3.7460     1.0210 ha         1 2XN       0.124000
     47 H14          0.4530    -2.2530     0.8540 ha         1 2XN       0.142000
     48 H15          2.2210     3.9850    -1.3540 hc         1 2XN       0.051367
     49 H16          3.3580     3.7480    -0.0380 hc         1 2XN       0.051367
     50 H17          3.6490     2.9920    -1.6020 hc         1 2XN       0.051367
     51 H18          4.5510     1.6940     0.5660 h1         1 2XN       0.091700
     52 H19          3.6020     1.2600     2.8260 hc         1 2XN       0.048700
     53 H20          3.4830    -0.4640     2.4550 hc         1 2XN       0.048700
     54 H21          5.0690     0.3200     2.5540 hc         1 2XN       0.048700
     55 H22          7.8820     2.7490     1.7310 hn         1 2XN       0.485750
     56 H23          9.5210     2.4030     1.3880 hn         1 2XN       0.485750
     57 H24         10.1400     0.3610     0.0930 ha         1 2XN       0.126000
     58 H25          8.8700    -2.5560    -1.7380 hn         1 2XN       0.485750
     59 H26         10.2850    -1.7610    -1.2070 hn         1 2XN       0.485750
@<TRIPOS>BOND
     1     1     2 1   
     2     1    34 1   
     3     1    35 1   
     4     1    36 1   
     5     2     3 2   
     6     2     4 2   
     7     2     5 1   
     8     5     6 1   
     9     5    37 1   
    10     6     7 1   
    11     6    38 1   
    12     6    39 1   
    13     7     8 1   
    14     7    40 1   
    15     7    41 1   
    16     8     9 1   
    17     9    10 ar  
    18     9    11 ar  
    19    10    16 ar  
    20    10    42 1   
    21    11    12 1   
    22    11    14 ar  
    23    12    13 1   
    24    13    43 1   
    25    13    44 1   
    26    13    45 1   
    27    14    15 ar  
    28    14    46 1   
    29    15    16 ar  
    30    15    47 1   
    31    16    17 1   
    32    17    18 2   
    33    17    19 1   
    34    18    22 1   
    35    19    20 1   
    36    20    21 1   
    37    20    22 2   
    38    21    48 1   
    39    21    49 1   
    40    21    50 1   
    41    22    23 1   
    42    23    24 1   
    43    23    25 1   
    44    23    51 1   
    45    24    52 1   
    46    24    53 1   
    47    24    54 1   
    48    25    26 1   
    49    26    27 ar  
    50    26    28 ar  
    51    27    32 ar  
    52    28    29 ar  
    53    29    30 1   
    54    29    31 ar  
    55    30    55 1   
    56    30    56 1   
    57    31    32 ar  
    58    31    57 1   
    59    32    33 1   
    60    33    58 1   
    61    33    59 1   
@<TRIPOS>SUBSTRUCTURE
     1 2XN         1 TEMP              0 ****  ****    0 ROOT
