@<TRIPOS>MOLECULE
2XN
   59    61     1     0     0
SMALL
No Charge or Current Charge


@<TRIPOS>ATOM
      1 CAD         -8.8470    -0.8940    -0.8970 c3         1 2XN      -0.390100
      2 SBG         -8.6680     0.5490     0.1340 s6         1 2XN       1.202100
      3 OAG         -9.1690     1.7260    -0.5780 o          1 2XN      -0.532000
      4 OAH         -9.1290     0.2520     1.4910 o          1 2XN      -0.532000
      5 NAR         -7.0180     0.7190     0.2370 n7         1 2XN      -0.872300
      6 CAM         -6.2620     1.1340    -0.9670 c3         1 2XN       0.204800
      7 CAN         -4.7390     1.0110    -0.7310 c3         1 2XN       0.157600
      8 OAT         -4.4490    -0.3650    -0.4080 os         1 2XN      -0.343100
      9 CBC         -3.1690    -0.8190    -0.1320 ca         1 2XN       0.108100
     10 CAL         -2.0480     0.0440    -0.1660 ca         1 2XN      -0.153000
     11 CBB         -2.9960    -2.1830     0.1920 ca         1 2XN       0.128100
     12 OAS         -4.1110    -3.0060     0.2200 os         1 2XN      -0.326100
     13 CAA         -4.0300    -4.4070     0.5380 c3         1 2XN       0.144900
     14 CAJ         -1.7040    -2.6710     0.4770 ca         1 2XN      -0.178000
     15 CAI         -0.5960    -1.8080     0.4400 ca         1 2XN      -0.055000
     16 CAY         -0.7480    -0.4400     0.1190 ca         1 2XN      -0.136500
     17 CBD          0.4320     0.4510     0.0870 cc         1 2XN       0.500900
     18 NAQ          1.6590     0.0210     0.3570 nd         1 2XN      -0.634000
     19 SAV          0.3040     2.1500    -0.3080 ss         1 2XN      -0.038400
     20 CAZ          2.0260     2.2770    -0.0970 cc         1 2XN      -0.204300
     21 CAB          2.7290     3.5940    -0.3010 c3         1 2XN      -0.017800
     22 CBE          2.5750     1.0610     0.2530 cd         1 2XN       0.289300
     23 CBF          4.0490     0.8010     0.5140 c3         1 2XN       0.046000
     24 CAC          4.2990     0.1290     1.8840 c3         1 2XN      -0.076100
     25 SAU          4.8500    -0.1940    -0.8340 ss         1 2XN      -0.308300
     26 C2           6.5950    -0.0970    -0.4620 ca         1 2XN       0.310300
     27 N3           7.2950    -1.2450    -0.5520 nb         1 2XN      -0.295500
     28 N1           7.0950     1.1090    -0.1230 nb         1 2XN      -0.295500
     29 C6           8.4020     1.1500     0.1510 ca         1 2XN       0.411400
     30 NAE          8.9050     2.3570     0.4910 nv         1 2XN      -1.069900
     31 C5           9.2170     0.0260     0.0910 ca         1 2XN      -0.384000
     32 C4           8.6000    -1.1640    -0.2730 ca         1 2XN       0.411400
     33 NAF          9.3030    -2.3140    -0.3600 nv         1 2XN      -1.069900
     34 H1          -8.4220    -0.6700    -1.8800 h1         1 2XN       0.101033
     35 H2          -8.3290    -1.7280    -0.4140 h1         1 2XN       0.101033
     36 H3          -9.9200    -1.0980    -0.9790 h1         1 2XN       0.101033
     37 H4          -6.7410    -0.2370     0.4560 hn         1 2XN       0.500000
     38 H5          -6.5190     0.5130    -1.8360 h1         1 2XN       0.061700
     39 H6          -6.4940     2.1750    -1.2290 h1         1 2XN       0.061700
     40 H7          -4.2080     1.3200    -1.6400 h1         1 2XN       0.049200
     41 H8          -4.4460     1.6760     0.0920 h1         1 2XN       0.049200
     42 H9          -2.1860     1.0910    -0.4150 ha         1 2XN       0.121000
     43 H10         -5.0270    -4.8630     0.5020 h1         1 2XN       0.042700
     44 H11         -3.3890    -4.9340    -0.1810 h1         1 2XN       0.042700
     45 H12         -3.6250    -4.5560     1.5470 h1         1 2XN       0.042700
     46 H13         -1.5360    -3.7130     0.7300 ha         1 2XN       0.124000
     47 H14          0.3890    -2.2150     0.6650 ha         1 2XN       0.142000
     48 H15          2.0340     4.3700    -0.6440 hc         1 2XN       0.051367
     49 H16          3.1860     3.9430     0.6330 hc         1 2XN       0.051367
     50 H17          3.5230     3.5020    -1.0530 hc         1 2XN       0.051367
     51 H18          4.5500     1.7770     0.5350 h1         1 2XN       0.091700
     52 H19          3.8330     0.7130     2.6860 hc         1 2XN       0.048700
     53 H20          3.8780    -0.8830     1.9050 hc         1 2XN       0.048700
     54 H21          5.3710     0.0590     2.0970 hc         1 2XN       0.048700
     55 H22          8.3340     3.1800     0.3190 hn         1 2XN       0.485750
     56 H23          9.9130     2.4890     0.4820 hn         1 2XN       0.485750
     57 H24         10.2770     0.0760     0.3160 ha         1 2XN       0.126000
     58 H25          8.7870    -3.1890    -0.4240 hn         1 2XN       0.485750
     59 H26         10.2280    -2.3570     0.0590 hn         1 2XN       0.485750
@<TRIPOS>BOND
     1     1     2 1   
     2     1    34 1   
     3     1    35 1   
     4     1    36 1   
     5     2     3 2   
     6     2     4 2   
     7     2     5 1   
     8     5     6 1   
     9     5    37 1   
    10     6     7 1   
    11     6    38 1   
    12     6    39 1   
    13     7     8 1   
    14     7    40 1   
    15     7    41 1   
    16     8     9 1   
    17     9    10 ar  
    18     9    11 ar  
    19    10    16 ar  
    20    10    42 1   
    21    11    12 1   
    22    11    14 ar  
    23    12    13 1   
    24    13    43 1   
    25    13    44 1   
    26    13    45 1   
    27    14    15 ar  
    28    14    46 1   
    29    15    16 ar  
    30    15    47 1   
    31    16    17 1   
    32    17    18 2   
    33    17    19 1   
    34    18    22 1   
    35    19    20 1   
    36    20    21 1   
    37    20    22 2   
    38    21    48 1   
    39    21    49 1   
    40    21    50 1   
    41    22    23 1   
    42    23    24 1   
    43    23    25 1   
    44    23    51 1   
    45    24    52 1   
    46    24    53 1   
    47    24    54 1   
    48    25    26 1   
    49    26    27 ar  
    50    26    28 ar  
    51    27    32 ar  
    52    28    29 ar  
    53    29    30 1   
    54    29    31 ar  
    55    30    55 1   
    56    30    56 1   
    57    31    32 ar  
    58    31    57 1   
    59    32    33 1   
    60    33    58 1   
    61    33    59 1   
@<TRIPOS>SUBSTRUCTURE
     1 2XN         1 TEMP              0 ****  ****    0 ROOT
