@<TRIPOS>MOLECULE
2XO
   19    20     1     0     0
SMALL
No Charge or Current Charge


@<TRIPOS>ATOM
      1 SAH          3.4880     1.2610     0.2310 sh         1 2XO      -0.436800
      2 CAI          2.5000    -0.2820     0.5930 c3         1 2XO       0.064300
      3 CAJ         -1.0590    -0.6970     0.3090 ca         1 2XO       0.066400
      4 NAK          0.1820    -1.2270     0.6180 nc         1 2XO      -0.561100
      5 CAL          1.0040    -0.1830     0.3890 cd         1 2XO       0.415800
      6 NAM          0.3500     0.9780    -0.0470 na         1 2XO      -0.304600
      7 CAN         -0.9640     0.6080    -0.0850 ca         1 2XO      -0.073200
      8 CAO         -2.0800     1.3710    -0.4510 ca         1 2XO      -0.116000
      9 CAP         -3.3450     0.7490    -0.4050 ca         1 2XO      -0.090000
     10 CAQ         -3.4580    -0.6010     0.0010 ca         1 2XO      -0.136000
     11 CAR         -2.3080    -1.3360     0.3630 ca         1 2XO      -0.045000
     12 H1           4.7020     0.7360     0.5340 hs         1 2XO       0.212800
     13 H2           2.8790    -1.0900    -0.0440 h1         1 2XO       0.084700
     14 H3           2.6840    -0.5700     1.6360 h1         1 2XO       0.084700
     15 H5           0.7750     1.8680    -0.2740 hn         1 2XO       0.363000
     16 H6          -1.9770     2.4090    -0.7620 ha         1 2XO       0.118000
     17 H7          -4.2350     1.3100    -0.6830 ha         1 2XO       0.113000
     18 H8          -4.4360    -1.0770     0.0350 ha         1 2XO       0.114000
     19 H9          -2.3850    -2.3750     0.6760 ha         1 2XO       0.129000
@<TRIPOS>BOND
     1     1     2 1   
     2     1    12 1   
     3     2     5 1   
     4     2    13 1   
     5     2    14 1   
     6     3     4 1   
     7     3     7 ar  
     8     3    11 ar  
     9     4     5 2   
    10     5     6 1   
    11     6     7 1   
    12     6    15 1   
    13     7     8 ar  
    14     8     9 ar  
    15     8    16 1   
    16     9    10 ar  
    17     9    17 1   
    18    10    11 ar  
    19    10    18 1   
    20    11    19 1   
@<TRIPOS>SUBSTRUCTURE
     1 2XO         1 TEMP              0 ****  ****    0 ROOT
