@<TRIPOS>MOLECULE
2XO
   19    20     1     0     0
SMALL
abcg2


@<TRIPOS>ATOM
      1 SAH          3.3690     0.4200    -0.6810 sh         1 2XO      -0.436800
      2 CAI          2.4660    -0.1960     0.7870 c3         1 2XO       0.064300
      3 CAJ         -1.0270    -0.7250     0.2210 ca         1 2XO       0.066400
      4 NAK          0.2270    -1.2130     0.5020 nc         1 2XO      -0.561100
      5 CAL          1.0060    -0.1670     0.5140 cd         1 2XO       0.415800
      6 NAM          0.3430     0.9890     0.2490 na         1 2XO      -0.304600
      7 CAN         -0.9730     0.6700     0.0560 ca         1 2XO      -0.073200
      8 CAO         -2.0960     1.4330    -0.2410 ca         1 2XO      -0.116000
      9 CAP         -3.2940     0.7510    -0.3700 ca         1 2XO      -0.090000
     10 CAQ         -3.3670    -0.6420    -0.2080 ca         1 2XO      -0.136000
     11 CAR         -2.2440    -1.3930     0.0880 ca         1 2XO      -0.045000
     12 H1           4.5530     0.5800    -0.0820 hs         1 2XO       0.212800
     13 H2           2.7600    -1.2170     1.0190 h1         1 2XO       0.084700
     14 H3           2.7070     0.4420     1.6380 h1         1 2XO       0.084700
     15 H5           0.7500     1.9110     0.2130 hn         1 2XO       0.363000
     16 H6          -2.0410     2.5060    -0.3650 ha         1 2XO       0.118000
     17 H7          -4.1950     1.3030    -0.6010 ha         1 2XO       0.113000
     18 H8          -4.3240    -1.1340    -0.3180 ha         1 2XO       0.114000
     19 H9          -2.3040    -2.4670     0.2110 ha         1 2XO       0.129000
@<TRIPOS>BOND
     1     1     2 1   
     2     1    12 1   
     3     2     5 1   
     4     2    13 1   
     5     2    14 1   
     6     3     4 1   
     7     3     7 ar  
     8     3    11 ar  
     9     4     5 2   
    10     5     6 1   
    11     6     7 1   
    12     6    15 1   
    13     7     8 ar  
    14     8     9 ar  
    15     8    16 1   
    16     9    10 ar  
    17     9    17 1   
    18    10    11 ar  
    19    10    18 1   
    20    11    19 1   
@<TRIPOS>SUBSTRUCTURE
     1 2XO         1 TEMP              0 ****  ****    0 ROOT
