@<TRIPOS>MOLECULE
2XP
   16    15     1     0     0
SMALL
abcg2


@<TRIPOS>ATOM
      1 O3          -2.3910    -1.2900     0.7950 o          1 2XP      -0.699500
      2 C1          -2.4160    -0.2370     0.1310 c          1 2XP       0.629700
      3 O2          -3.3890     0.2920    -0.4240 o          1 2XP      -0.699500
      4 C2          -1.0560     0.4740    -0.0200 ce         1 2XP       0.335300
      5 N           -0.9440     1.4060    -0.8690 n2         1 2XP      -0.741100
      6 C3           0.0640    -0.0560     0.8560 c3         1 2XP      -0.165500
      7 C4           1.2440     0.8540     0.9060 c2         1 2XP      -0.112200
      8 C5           2.4350     0.6960     0.3150 ce         1 2XP      -0.369200
      9 C6           2.7930    -0.4480    -0.5200 c          1 2XP       0.580100
     10 O1           3.8740    -0.5660    -1.0570 o          1 2XP      -0.561100
     11 H2           0.0060     1.7750    -0.8960 hn         1 2XP       0.316400
     12 H3          -0.3230    -0.1800     1.8700 hc         1 2XP       0.076200
     13 H4           1.0980     1.7610     1.4860 ha         1 2XP       0.162000
     14 H5           3.2000     1.4550     0.4440 ha         1 2XP       0.176000
     15 H6           2.0200    -1.2220    -0.6540 h4         1 2XP      -0.001800
     16 H7           0.3180    -1.0600     0.5150 hc         1 2XP       0.076200
@<TRIPOS>BOND
     1     1     2 1   
     2     2     3 1   
     3     2     4 1   
     4     4     5 2   
     5     4     6 1   
     6     5    11 1   
     7     6     7 1   
     8     6    12 1   
     9     6    16 1   
    10     7     8 2   
    11     7    13 1   
    12     8     9 1   
    13     8    14 1   
    14     9    10 2   
    15     9    15 1   
@<TRIPOS>SUBSTRUCTURE
     1 2XP         1 TEMP              0 ****  ****    0 ROOT
