@<TRIPOS>MOLECULE
2XP
   16    15     1     0     0
SMALL
No Charge or Current Charge


@<TRIPOS>ATOM
      1 O3          -2.4890    -1.2750     0.7630 o          1 2XP      -0.699500
      2 C1          -2.2840    -0.4060    -0.0800 c          1 2XP       0.629700
      3 O2          -3.1050    -0.1690    -0.9640 o          1 2XP      -0.699500
      4 C2          -0.9610     0.4060    -0.0190 ce         1 2XP       0.335300
      5 N           -0.6910     1.3440    -0.8920 n2         1 2XP      -0.741100
      6 C3           0.0320     0.0750     1.0980 c3         1 2XP      -0.165500
      7 C4           1.3190     0.8870     1.0900 c2         1 2XP      -0.112200
      8 C5           2.3950     0.6940     0.2910 ce         1 2XP      -0.369200
      9 C6           2.5170    -0.3660    -0.7500 c          1 2XP       0.580100
     10 O1           3.5220    -0.4950    -1.4400 o          1 2XP      -0.561100
     11 H2           0.2340     1.7390    -0.6790 hn         1 2XP       0.316400
     12 H3          -0.4710     0.2220     2.0620 hc         1 2XP       0.076200
     13 H4           1.3330     1.6970     1.8250 ha         1 2XP       0.162000
     14 H5           3.2660     1.3420     0.3830 ha         1 2XP       0.176000
     15 H6           1.6460    -1.0460    -0.8760 h4         1 2XP      -0.001800
     16 H7           0.2710    -0.9950     1.0650 hc         1 2XP       0.076200
@<TRIPOS>BOND
     1     1     2 1   
     2     2     3 1   
     3     2     4 1   
     4     4     5 2   
     5     4     6 1   
     6     5    11 1   
     7     6     7 1   
     8     6    12 1   
     9     6    16 1   
    10     7     8 2   
    11     7    13 1   
    12     8     9 1   
    13     8    14 1   
    14     9    10 2   
    15     9    15 1   
@<TRIPOS>SUBSTRUCTURE
     1 2XP         1 TEMP              0 ****  ****    0 ROOT
