@<TRIPOS>MOLECULE
2XQ
   56    59     1     0     0
SMALL
bcc


@<TRIPOS>ATOM
      1 CAH         -9.4810    -1.2940     0.8390 ca         1 2XQ      -0.088000
      2 CAE        -10.1400    -2.4920     1.0750 ca         1 2XQ      -0.250300
      3 CAG         -9.7160    -3.6220     0.3990 ca         1 2XQ       0.402200
      4 NAS         -8.7040    -3.6150    -0.4670 nb         1 2XQ      -0.666000
      5 CAM         -8.0840    -2.4640    -0.6790 ca         1 2XQ       0.426200
      6 CAX         -8.4280    -1.2630    -0.0620 ca         1 2XQ      -0.209600
      7 CAQ         -7.6560    -0.0090    -0.3580 c3         1 2XQ       0.210100
      8 NAT         -6.2710    -0.1570     0.0460 n7         1 2XQ      -0.801200
      9 CAO         -5.4620     1.0020    -0.2740 c3         1 2XQ       0.160800
     10 CAN         -4.0120     0.7610     0.1120 c3         1 2XQ      -0.085400
     11 CAP         -3.1490     1.9600    -0.2190 c3         1 2XQ       0.139400
     12 OAU         -1.8150     1.6530     0.1240 os         1 2XQ      -0.313900
     13 CBD         -0.8610     2.5730    -0.0990 ca         1 2XQ       0.205100
     14 CAI         -1.0770     3.8480    -0.6000 ca         1 2XQ      -0.252000
     15 CAF         -0.0060     4.7310    -0.7940 ca         1 2XQ      -0.062000
     16 CAL          1.2990     4.3880    -0.5050 ca         1 2XQ      -0.165000
     17 CBF          1.4860     3.1070    -0.0060 ca         1 2XQ       0.110100
     18 OAW          2.6610     2.5580     0.3430 os         1 2XQ      -0.155200
     19 CBG          0.4550     2.1970     0.2040 ca         1 2XQ      -0.157800
     20 CAZ          1.0760     1.0020     0.7150 cc         1 2XQ      -0.055400
     21 CAA          0.4050    -0.2750     1.0830 c3         1 2XQ      -0.024900
     22 CBE          2.3960     1.2910     0.7690 cd         1 2XQ      -0.019100
     23 CAR          3.5610     0.4890     1.1950 c3         1 2XQ       0.212600
     24 OAV          4.2770     0.0850     0.0410 os         1 2XQ      -0.290900
     25 CBC          5.4100    -0.6120     0.2150 ca         1 2XQ       0.117100
     26 CAK          5.9300    -1.0380     1.4310 ca         1 2XQ      -0.190000
     27 CAJ          7.1180    -1.7610     1.4820 ca         1 2XQ      -0.124000
     28 CAY          7.7910    -2.0630     0.3240 ca         1 2XQ       0.085900
     29 FAB          8.9310    -2.7550     0.3490 f          1 2XQ      -0.120900
     30 CBA          7.2870    -1.6470    -0.9010 ca         1 2XQ       0.089900
     31 FAC          7.9340    -1.9330    -2.0240 f          1 2XQ      -0.104900
     32 CBB          6.1120    -0.9300    -0.9500 ca         1 2XQ       0.089900
     33 FAD          5.6420    -0.5340    -2.1280 f          1 2XQ      -0.104900
     34 HAH         -9.7890    -0.3940     1.3560 ha         1 2XQ       0.132000
     35 HAE        -10.9640    -2.5480     1.7720 ha         1 2XQ       0.141000
     36 HAG        -10.2110    -4.5740     0.5590 h4         1 2XQ       0.019100
     37 HAM         -7.2580    -2.4810    -1.3840 h4         1 2XQ       0.029100
     38 HAQ1        -7.6740     0.1850    -1.4350 h1         1 2XQ       0.038200
     39 HAQ2        -8.1580     0.8510     0.1100 h1         1 2XQ       0.038200
     40 HAT         -6.2430    -0.3020     1.0490 hn         1 2XQ       0.355800
     41 HAO1        -5.5290     1.1780    -1.3520 h1         1 2XQ       0.030200
     42 HAO2        -5.8320     1.9200     0.2080 h1         1 2XQ       0.030200
     43 HAN1        -3.9420     0.5570     1.1850 hc         1 2XQ       0.063700
     44 HAN2        -3.6380    -0.1220    -0.4120 hc         1 2XQ       0.063700
     45 HAP1        -3.2220     2.1970    -1.2880 h1         1 2XQ       0.035200
     46 HAP2        -3.4970     2.8400     0.3350 h1         1 2XQ       0.035200
     47 HAI         -2.0710     4.1890    -0.8490 ha         1 2XQ       0.137000
     48 HAF         -0.2200     5.7150    -1.1880 ha         1 2XQ       0.133000
     49 HAL          2.1230     5.0700    -0.6590 ha         1 2XQ       0.154000
     50 HAA1        -0.1080    -0.7090     0.2260 hc         1 2XQ       0.048700
     51 HAA2         1.1170    -1.0130     1.4490 hc         1 2XQ       0.048700
     52 HAA3        -0.3430    -0.1190     1.8590 hc         1 2XQ       0.048700
     53 HAR1         4.2100     1.0770     1.8560 h1         1 2XQ       0.054700
     54 HAR2         3.2140    -0.3820     1.7610 h1         1 2XQ       0.054700
     55 HAK          5.4250    -0.8200     2.3600 ha         1 2XQ       0.146000
     56 HAJ          7.5170    -2.0850     2.4330 ha         1 2XQ       0.157000
@<TRIPOS>BOND
     1     1     2 ar  
     2     1     6 ar  
     3     1    34 1   
     4     2     3 ar  
     5     2    35 1   
     6     3     4 ar  
     7     3    36 1   
     8     4     5 ar  
     9     5     6 ar  
    10     5    37 1   
    11     6     7 1   
    12     7     8 1   
    13     7    38 1   
    14     7    39 1   
    15     8     9 1   
    16     8    40 1   
    17     9    10 1   
    18     9    41 1   
    19     9    42 1   
    20    10    11 1   
    21    10    43 1   
    22    10    44 1   
    23    11    12 1   
    24    11    45 1   
    25    11    46 1   
    26    12    13 1   
    27    13    14 ar  
    28    13    19 ar  
    29    14    15 ar  
    30    14    47 1   
    31    15    16 ar  
    32    15    48 1   
    33    16    17 ar  
    34    16    49 1   
    35    17    18 1   
    36    17    19 ar  
    37    18    22 1   
    38    19    20 1   
    39    20    21 1   
    40    20    22 2   
    41    21    50 1   
    42    21    51 1   
    43    21    52 1   
    44    22    23 1   
    45    23    24 1   
    46    23    53 1   
    47    23    54 1   
    48    24    25 1   
    49    25    26 ar  
    50    25    32 ar  
    51    26    27 ar  
    52    26    55 1   
    53    27    28 ar  
    54    27    56 1   
    55    28    29 1   
    56    28    30 ar  
    57    30    31 1   
    58    30    32 ar  
    59    32    33 1   
@<TRIPOS>SUBSTRUCTURE
     1 2XQ         1 TEMP              0 ****  ****    0 ROOT
