@<TRIPOS>MOLECULE
2XQ
   56    59     1     0     0
SMALL
No Charge or Current Charge


@<TRIPOS>ATOM
      1 CAH         -8.6490    -1.8910     1.1080 ca         1 2XQ      -0.070000
      2 CAE         -9.1720    -3.1810     1.2950 ca         1 2XQ      -0.167000
      3 CAG         -9.1350    -4.0980     0.2310 ca         1 2XQ       0.336900
      4 NAS         -8.6140    -3.7980    -0.9810 nb         1 2XQ      -0.666000
      5 CAM         -8.1080    -2.5520    -1.1580 ca         1 2XQ       0.360900
      6 CAX         -8.1040    -1.5700    -0.1490 ca         1 2XQ      -0.144300
      7 CAQ         -7.5280    -0.1950    -0.4260 c3         1 2XQ       0.210100
      8 NAT         -6.0830    -0.1930    -0.1500 n7         1 2XQ      -0.856400
      9 CAO         -5.4060     1.0960    -0.3700 c3         1 2XQ       0.160800
     10 CAN         -3.9010     0.9620    -0.0760 c3         1 2XQ      -0.085400
     11 CAP         -3.1380     2.2780    -0.3040 c3         1 2XQ       0.162600
     12 OAU         -1.7560     2.0360     0.0000 os         1 2XQ      -0.337100
     13 CBD         -0.7970     3.0220    -0.1040 ca         1 2XQ       0.205100
     14 CAI         -1.0970     4.3460    -0.5160 ca         1 2XQ      -0.234000
     15 CAF         -0.0760     5.3240    -0.6080 ca         1 2XQ      -0.044000
     16 CAL          1.2570     4.9940    -0.2900 ca         1 2XQ      -0.147000
     17 CBF          1.5180     3.6820     0.1120 ca         1 2XQ       0.110100
     18 OAW          2.7130     3.1430     0.4630 os         1 2XQ      -0.155200
     19 CBG          0.5390     2.7210     0.2070 ca         1 2XQ      -0.157800
     20 CAZ          1.1680     1.4830     0.6510 cc         1 2XQ      -0.055400
     21 CAA          0.5080     0.1520     0.8980 c3         1 2XQ      -0.024900
     22 CBE          2.5100     1.8240     0.7870 cd         1 2XQ      -0.019100
     23 CAR          3.6900     0.9890     1.2160 c3         1 2XQ       0.235800
     24 OAV          3.9360    -0.0090     0.2090 os         1 2XQ      -0.314100
     25 CBC          4.9460    -0.9470     0.3230 ca         1 2XQ       0.117100
     26 CAK          5.8200    -0.9790     1.4360 ca         1 2XQ      -0.172000
     27 CAJ          6.8340    -1.9540     1.5080 ca         1 2XQ      -0.106000
     28 CAY          6.9800    -2.8970     0.4770 ca         1 2XQ       0.121000
     29 FAB          7.9580    -3.8280     0.5590 f          1 2XQ      -0.156000
     30 CBA          6.1150    -2.8710    -0.6310 ca         1 2XQ       0.125000
     31 FAC          6.2580    -3.7820    -1.6240 f          1 2XQ      -0.140000
     32 CBB          5.1010    -1.8990    -0.7080 ca         1 2XQ       0.125000
     33 FAD          4.2690    -1.8790    -1.7780 f          1 2XQ      -0.140000
     34 HAH         -8.6660    -1.1620     1.9160 ha         1 2XQ       0.114000
     35 HAE         -9.6020    -3.4730     2.2490 ha         1 2XQ       0.123000
     36 HAG         -9.5360    -5.1040     0.3520 h4         1 2XQ       0.019100
     37 HAM         -7.6940    -2.3370    -2.1430 h4         1 2XQ       0.029100
     38 HAQ1        -7.7200     0.0740    -1.4740 h1         1 2XQ       0.038200
     39 HAQ2        -8.0420     0.5450     0.2030 h1         1 2XQ       0.038200
     40 HAT         -5.9530    -0.4630     0.8320 hn         1 2XQ       0.411000
     41 HAO1        -5.5400     1.4240    -1.4100 h1         1 2XQ       0.030200
     42 HAO2        -5.8330     1.8700     0.2840 h1         1 2XQ       0.030200
     43 HAN1        -3.7590     0.6410     0.9630 hc         1 2XQ       0.063700
     44 HAN2        -3.4750     0.1850    -0.7210 hc         1 2XQ       0.063700
     45 HAP1        -3.2560     2.5950    -1.3480 h1         1 2XQ       0.035200
     46 HAP2        -3.5480     3.0590     0.3510 h1         1 2XQ       0.035200
     47 HAI         -2.1120     4.6360    -0.7690 ha         1 2XQ       0.119000
     48 HAF         -0.3210     6.3360    -0.9260 ha         1 2XQ       0.115000
     49 HAL          2.0540     5.7300    -0.3550 ha         1 2XQ       0.136000
     50 HAA1         0.0340    -0.2210    -0.0170 hc         1 2XQ       0.048700
     51 HAA2         1.2320    -0.6000     1.2310 hc         1 2XQ       0.048700
     52 HAA3        -0.2660     0.2390     1.6700 hc         1 2XQ       0.048700
     53 HAR1         4.5670     1.6360     1.3430 h1         1 2XQ       0.054700
     54 HAR2         3.4610     0.5190     2.1810 h1         1 2XQ       0.054700
     55 HAK          5.7310    -0.2630     2.2480 ha         1 2XQ       0.128000
     56 HAJ          7.5070    -1.9810     2.3630 ha         1 2XQ       0.139000
@<TRIPOS>BOND
     1     1     2 ar  
     2     1     6 ar  
     3     1    34 1   
     4     2     3 ar  
     5     2    35 1   
     6     3     4 ar  
     7     3    36 1   
     8     4     5 ar  
     9     5     6 ar  
    10     5    37 1   
    11     6     7 1   
    12     7     8 1   
    13     7    38 1   
    14     7    39 1   
    15     8     9 1   
    16     8    40 1   
    17     9    10 1   
    18     9    41 1   
    19     9    42 1   
    20    10    11 1   
    21    10    43 1   
    22    10    44 1   
    23    11    12 1   
    24    11    45 1   
    25    11    46 1   
    26    12    13 1   
    27    13    14 ar  
    28    13    19 ar  
    29    14    15 ar  
    30    14    47 1   
    31    15    16 ar  
    32    15    48 1   
    33    16    17 ar  
    34    16    49 1   
    35    17    18 1   
    36    17    19 ar  
    37    18    22 1   
    38    19    20 1   
    39    20    21 1   
    40    20    22 2   
    41    21    50 1   
    42    21    51 1   
    43    21    52 1   
    44    22    23 1   
    45    23    24 1   
    46    23    53 1   
    47    23    54 1   
    48    24    25 1   
    49    25    26 ar  
    50    25    32 ar  
    51    26    27 ar  
    52    26    55 1   
    53    27    28 ar  
    54    27    56 1   
    55    28    29 1   
    56    28    30 ar  
    57    30    31 1   
    58    30    32 ar  
    59    32    33 1   
@<TRIPOS>SUBSTRUCTURE
     1 2XQ         1 TEMP              0 ****  ****    0 ROOT
