@<TRIPOS>MOLECULE
2XR
   21    22     1     0     0
SMALL
No Charge or Current Charge


@<TRIPOS>ATOM
      1 CAH          2.6480     0.6930    -0.0220 c3         1 2XR       0.006600
      2 CAI          1.4160    -0.2330    -0.0180 c          1 2XR       0.606300
      3 OAJ          1.5380    -1.4530    -0.0120 o          1 2XR      -0.502100
      4 CAN          0.0810     0.4280    -0.0220 cc         1 2XR      -0.248400
      5 CAO         -1.2170    -0.1960    -0.0190 ca         1 2XR      -0.051800
      6 CAP         -1.5990    -1.5480    -0.0120 ca         1 2XR      -0.053000
      7 CAQ         -2.9780    -1.8480    -0.0110 ca         1 2XR      -0.131000
      8 CAR         -3.9360    -0.8070    -0.0160 ca         1 2XR      -0.091000
      9 CAS         -3.5200     0.5410    -0.0230 ca         1 2XR      -0.124000
     10 CAK         -2.1440     0.8110    -0.0240 ca         1 2XR      -0.064200
     11 NAL         -1.5320     2.0530    -0.0300 na         1 2XR      -0.207700
     12 CAM         -0.1380     1.8070    -0.0290 cd         1 2XR      -0.106100
     13 H1           2.6060     1.3230    -0.9180 h1         1 2XR       0.076200
     14 H2           2.6060     1.3320     0.8670 h1         1 2XR       0.076200
     15 H4          -0.8620    -2.3470    -0.0080 ha         1 2XR       0.139000
     16 H5          -3.3060    -2.8850    -0.0060 ha         1 2XR       0.115000
     17 H6          -4.9970    -1.0460    -0.0160 ha         1 2XR       0.113000
     18 H7          -4.2500     1.3480    -0.0270 ha         1 2XR       0.115000
     19 H8          -1.9910     2.9590    -0.0350 hn         1 2XR       0.353000
     20 H9           0.5780     2.6270    -0.0330 h4         1 2XR       0.214000
     21 Cl1          4.2610    -0.1710    -0.0180 cl         1 2XR      -0.233000
@<TRIPOS>BOND
     1     1     2 1   
     2     1    13 1   
     3     1    14 1   
     4     1    21 1   
     5     2     3 2   
     6     2     4 1   
     7     4     5 1   
     8     4    12 2   
     9     5     6 ar  
    10     5    10 ar  
    11     6     7 ar  
    12     6    15 1   
    13     7     8 ar  
    14     7    16 1   
    15     8     9 ar  
    16     8    17 1   
    17     9    10 ar  
    18     9    18 1   
    19    10    11 1   
    20    11    12 1   
    21    11    19 1   
    22    12    20 1   
@<TRIPOS>SUBSTRUCTURE
     1 2XR         1 TEMP              0 ****  ****    0 ROOT
