@<TRIPOS>MOLECULE
2XR
   21    22     1     0     0
SMALL
bcc


@<TRIPOS>ATOM
      1 CAH          2.6090     0.7140    -0.0290 c3         1 2XR      -0.070000
      2 CAI          1.4060    -0.2170    -0.0180 c          1 2XR       0.606300
      3 OAJ          1.5340    -1.4210    -0.0080 o          1 2XR      -0.502100
      4 CAN          0.1050     0.4270    -0.0240 cc         1 2XR      -0.248400
      5 CAO         -1.1790    -0.2250    -0.0220 ca         1 2XR      -0.051800
      6 CAP         -1.6050    -1.5570    -0.0180 ca         1 2XR      -0.071000
      7 CAQ         -2.9610    -1.8200    -0.0160 ca         1 2XR      -0.149000
      8 CAR         -3.9060    -0.7840    -0.0180 ca         1 2XR      -0.109000
      9 CAS         -3.5140     0.5390    -0.0200 ca         1 2XR      -0.142000
     10 CAK         -2.1470     0.7960    -0.0240 ca         1 2XR      -0.064200
     11 NAL         -1.4780     1.9970    -0.0280 na         1 2XR      -0.157400
     12 CAM         -0.1480     1.7820    -0.0270 cd         1 2XR      -0.056100
     13 H1           2.6000     1.3280    -0.9290 h1         1 2XR       0.076200
     14 H2           2.5770     1.3820     0.8320 h1         1 2XR       0.076200
     15 H4          -0.8880    -2.3650    -0.0140 ha         1 2XR       0.157000
     16 H5          -3.3030    -2.8460    -0.0110 ha         1 2XR       0.133000
     17 H6          -4.9610    -1.0230    -0.0140 ha         1 2XR       0.131000
     18 H7          -4.2420     1.3390    -0.0110 ha         1 2XR       0.133000
     19 H8          -1.9120     2.9040    -0.0240 hn         1 2XR       0.302700
     20 H9           0.5390     2.6130    -0.0290 h4         1 2XR       0.164000
     21 CL1          4.1390    -0.1760     0.0200 cl         1 2XR      -0.156400
@<TRIPOS>BOND
     1     1     2 1   
     2     1    13 1   
     3     1    14 1   
     4     1    21 1   
     5     2     3 2   
     6     2     4 1   
     7     4     5 1   
     8     4    12 2   
     9     5     6 ar  
    10     5    10 ar  
    11     6     7 ar  
    12     6    15 1   
    13     7     8 ar  
    14     7    16 1   
    15     8     9 ar  
    16     8    17 1   
    17     9    10 ar  
    18     9    18 1   
    19    10    11 1   
    20    11    12 1   
    21    11    19 1   
    22    12    20 1   
@<TRIPOS>SUBSTRUCTURE
     1 2XR         1 TEMP              0 ****  ****    0 ROOT
