@<TRIPOS>MOLECULE
2XS
   50    55     1     0     0
SMALL
abcg2


@<TRIPOS>ATOM
      1 CAF          5.2670     0.3590    -0.0270 ca         1 2XS       0.230000
      2 NAG          4.5670     1.5050    -0.1610 nb         1 2XS      -0.692000
      3 CAH          5.2180     2.6330    -0.2610 ca         1 2XS       0.354900
      4 CAI          6.6240     2.7190    -0.2340 ca         1 2XS      -0.163000
      5 CAJ          7.3490     1.5690    -0.1000 ca         1 2XS      -0.061000
      6 CAA          6.6790     0.3310     0.0090 ca         1 2XS      -0.053000
      7 CAB          7.3500    -0.9040     0.1480 ca         1 2XS      -0.129000
      8 CAC          6.6210    -2.0550     0.2460 ca         1 2XS      -0.071000
      9 CAD          5.2110    -2.0480     0.2140 ca         1 2XS      -0.143000
     10 CAE          4.5290    -0.8610     0.0800 ca         1 2XS       0.005000
     11 NAK          3.1500    -0.7050     0.0270 ns         1 2XS      -0.133000
     12 CAL          2.1810    -1.6460     0.1290 c          1 2XS       0.622700
     13 OAM          2.3970    -2.8250     0.3460 o          1 2XS      -0.583100
     14 CAN          0.7850    -1.1330    -0.0250 ca         1 2XS      -0.149600
     15 CAS         -0.2420    -1.8540     0.5790 ca         1 2XS      -0.062500
     16 CAO         -1.5550    -1.4330     0.4690 ca         1 2XS      -0.105500
     17 CAR          0.4730     0.0030    -0.7680 ca         1 2XS      -0.062500
     18 CAQ         -0.8430     0.4180    -0.8980 ca         1 2XS      -0.105500
     19 CAP         -1.8520    -0.2980    -0.2720 ca         1 2XS      -0.022000
     20 NAT         -3.1950     0.1310    -0.3910 n          1 2XS      -0.227000
     21 CAW         -3.6780     1.2950     0.1930 c          1 2XS       0.578000
     22 OBE         -3.0020     2.0530     0.8390 o          1 2XS      -0.484000
     23 CAV         -5.1490     1.4000    -0.1120 c5         1 2XS      -0.157200
     24 CBB         -6.0430     1.2210     1.1550 c5         1 2XS      -0.027500
     25 CBC         -5.9790    -0.3010     1.3400 c5         1 2XS      -0.090400
     26 CBA         -7.4620     1.3680     0.6460 c2         1 2XS      -0.223700
     27 CAZ         -7.7420     0.2860    -0.0790 c2         1 2XS      -0.223700
     28 CAY         -6.5160    -0.6020    -0.0660 c5         1 2XS      -0.027500
     29 CAU         -5.4740     0.1530    -0.9490 c5         1 2XS      -0.157200
     30 CAX         -4.1680    -0.5870    -1.0720 c          1 2XS       0.578000
     31 OBD         -3.9620    -1.6270    -1.6420 o          1 2XS      -0.484000
     32 H1           4.6240     3.5340    -0.3690 h4         1 2XS       0.019100
     33 H2           7.1050     3.6830    -0.3220 ha         1 2XS       0.125000
     34 H3           8.4310     1.5920    -0.0780 ha         1 2XS       0.121000
     35 H4           8.4320    -0.9240     0.1750 ha         1 2XS       0.118000
     36 H5           7.1250    -3.0060     0.3530 ha         1 2XS       0.117000
     37 H6           4.6830    -2.9830     0.2980 ha         1 2XS       0.152000
     38 H7           2.8780     0.2670    -0.0610 hn         1 2XS       0.187000
     39 H8          -0.0150    -2.7420     1.1530 ha         1 2XS       0.131000
     40 H9          -2.3430    -1.9820     0.9680 ha         1 2XS       0.127000
     41 H10          1.2380     0.5640    -1.2880 ha         1 2XS       0.131000
     42 H11         -1.0790     1.2880    -1.4950 ha         1 2XS       0.127000
     43 H12         -5.3420     2.3480    -0.6160 hc         1 2XS       0.099200
     44 H13         -5.7580     1.8510     1.9940 hc         1 2XS       0.093700
     45 H14         -4.9790    -0.6940     1.5440 hc         1 2XS       0.063200
     46 H15         -6.6470    -0.6550     2.1260 hc         1 2XS       0.063200
     47 H16         -8.0740     2.2500     0.7780 ha         1 2XS       0.200000
     48 H18         -8.6320     0.0980    -0.6650 ha         1 2XS       0.200000
     49 H20         -6.6660    -1.6430    -0.3450 hc         1 2XS       0.093700
     50 H21         -5.8600     0.3660    -1.9460 hc         1 2XS       0.099200
@<TRIPOS>BOND
     1     1     2 ar  
     2     1     6 ar  
     3     1    10 ar  
     4     2     3 ar  
     5     3     4 ar  
     6     3    32 1   
     7     4     5 ar  
     8     4    33 1   
     9     5     6 ar  
    10     5    34 1   
    11     6     7 ar  
    12     7     8 ar  
    13     7    35 1   
    14     8     9 ar  
    15     8    36 1   
    16     9    10 ar  
    17     9    37 1   
    18    10    11 1   
    19    11    12 1   
    20    11    38 1   
    21    12    13 2   
    22    12    14 1   
    23    14    15 ar  
    24    14    17 ar  
    25    15    16 ar  
    26    15    39 1   
    27    16    19 ar  
    28    16    40 1   
    29    17    18 ar  
    30    17    41 1   
    31    18    19 ar  
    32    18    42 1   
    33    19    20 1   
    34    20    21 1   
    35    20    30 1   
    36    21    22 2   
    37    21    23 1   
    38    23    24 1   
    39    23    29 1   
    40    23    43 1   
    41    24    25 1   
    42    24    26 1   
    43    24    44 1   
    44    25    28 1   
    45    25    45 1   
    46    25    46 1   
    47    26    27 2   
    48    26    47 1   
    49    27    28 1   
    50    27    48 1   
    51    28    29 1   
    52    28    49 1   
    53    29    30 1   
    54    29    50 1   
    55    30    31 2   
@<TRIPOS>SUBSTRUCTURE
     1 2XS         1 TEMP              0 ****  ****    0 ROOT
