@<TRIPOS>MOLECULE
2XS
   50    55     1     0     0
SMALL
No Charge or Current Charge


@<TRIPOS>ATOM
      1 CAF          5.3460     0.3670    -0.1260 ca         1 2XS       0.230000
      2 NAG          4.6760     1.5160    -0.4180 nb         1 2XS      -0.692000
      3 CAH          5.3830     2.6420    -0.6710 ca         1 2XS       0.354900
      4 CAI          6.7850     2.6830    -0.6470 ca         1 2XS      -0.163000
      5 CAJ          7.4940     1.5100    -0.3490 ca         1 2XS      -0.061000
      6 CAA          6.7670     0.3360    -0.0850 ca         1 2XS      -0.053000
      7 CAB          7.4520    -0.8540     0.2170 ca         1 2XS      -0.129000
      8 CAC          6.7330    -2.0270     0.4810 ca         1 2XS      -0.071000
      9 CAD          5.3300    -2.0170     0.4450 ca         1 2XS      -0.143000
     10 CAE          4.6270    -0.8270     0.1430 ca         1 2XS       0.005000
     11 NAK          3.2030    -0.7590     0.0930 ns         1 2XS      -0.133000
     12 CAL          2.1980    -1.6940     0.2940 c          1 2XS       0.622700
     13 OAM          2.4160    -2.8660     0.5810 o          1 2XS      -0.583100
     14 CAN          0.7770    -1.1790     0.1360 ca         1 2XS      -0.149600
     15 CAS         -0.3090    -2.0650     0.3240 ca         1 2XS      -0.062500
     16 CAO         -1.6350    -1.6210     0.1850 ca         1 2XS      -0.105500
     17 CAR          0.4920     0.1690    -0.1990 ca         1 2XS      -0.062500
     18 CAQ         -0.8370     0.6070    -0.3360 ca         1 2XS      -0.105500
     19 CAP         -1.9110    -0.2820    -0.1430 ca         1 2XS      -0.022000
     20 NAT         -3.2750     0.1620    -0.2840 n          1 2XS      -0.227000
     21 CAW         -3.7510     1.3200     0.3480 c          1 2XS       0.578000
     22 OBE         -3.0800     2.1020     1.0100 o          1 2XS      -0.484000
     23 CAV         -5.2270     1.4660    -0.0620 c5         1 2XS      -0.157200
     24 CBB         -6.1850     1.1800     1.1540 c5         1 2XS      -0.027500
     25 CBC         -6.0980    -0.3680     1.2510 c5         1 2XS      -0.090400
     26 CBA         -7.5990     1.3300     0.6190 c2         1 2XS      -0.223700
     27 CAZ         -7.8390     0.2920    -0.1860 c2         1 2XS      -0.223700
     28 CAY         -6.5890    -0.5720    -0.2080 c5         1 2XS      -0.027500
     29 CAU         -5.5140     0.2460    -1.0150 c5         1 2XS      -0.157200
     30 CAX         -4.1820    -0.5170    -1.1090 c          1 2XS       0.578000
     31 OBD         -3.8990    -1.4370    -1.8660 o          1 2XS      -0.484000
     32 H1           4.8060     3.5370    -0.8990 h4         1 2XS       0.019100
     33 H2           7.3060     3.6120    -0.8570 ha         1 2XS       0.125000
     34 H3           8.5820     1.5150    -0.3240 ha         1 2XS       0.121000
     35 H4           8.5390    -0.8720     0.2470 ha         1 2XS       0.118000
     36 H5           7.2650    -2.9480     0.7140 ha         1 2XS       0.117000
     37 H6           4.8110    -2.9460     0.6550 ha         1 2XS       0.152000
     38 H7           2.8680     0.1660    -0.1380 hn         1 2XS       0.187000
     39 H8          -0.1300    -3.1070     0.5820 ha         1 2XS       0.131000
     40 H9          -2.4490    -2.3260     0.3430 ha         1 2XS       0.127000
     41 H10          1.2850     0.8950    -0.3600 ha         1 2XS       0.131000
     42 H11         -1.0260     1.6440    -0.6050 ha         1 2XS       0.127000
     43 H12         -5.3940     2.4590    -0.4950 hc         1 2XS       0.099200
     44 H13         -5.9740     1.7280     2.0820 hc         1 2XS       0.093700
     45 H14         -5.1040    -0.7710     1.4740 hc         1 2XS       0.063200
     46 H15         -6.7950    -0.7820     1.9910 hc         1 2XS       0.063200
     47 H16         -8.3010     2.1360     0.8470 ha         1 2XS       0.200000
     48 H18         -8.7700     0.1070    -0.7280 ha         1 2XS       0.200000
     49 H20         -6.7450    -1.6140    -0.5170 hc         1 2XS       0.093700
     50 H21         -5.8650     0.5000    -2.0220 hc         1 2XS       0.099200
@<TRIPOS>BOND
     1     1     2 ar  
     2     1     6 ar  
     3     1    10 ar  
     4     2     3 ar  
     5     3     4 ar  
     6     3    32 1   
     7     4     5 ar  
     8     4    33 1   
     9     5     6 ar  
    10     5    34 1   
    11     6     7 ar  
    12     7     8 ar  
    13     7    35 1   
    14     8     9 ar  
    15     8    36 1   
    16     9    10 ar  
    17     9    37 1   
    18    10    11 1   
    19    11    12 1   
    20    11    38 1   
    21    12    13 2   
    22    12    14 1   
    23    14    15 ar  
    24    14    17 ar  
    25    15    16 ar  
    26    15    39 1   
    27    16    19 ar  
    28    16    40 1   
    29    17    18 ar  
    30    17    41 1   
    31    18    19 ar  
    32    18    42 1   
    33    19    20 1   
    34    20    21 1   
    35    20    30 1   
    36    21    22 2   
    37    21    23 1   
    38    23    24 1   
    39    23    29 1   
    40    23    43 1   
    41    24    25 1   
    42    24    26 1   
    43    24    44 1   
    44    25    28 1   
    45    25    45 1   
    46    25    46 1   
    47    26    27 2   
    48    26    47 1   
    49    27    28 1   
    50    27    48 1   
    51    28    29 1   
    52    28    49 1   
    53    29    30 1   
    54    29    50 1   
    55    30    31 2   
@<TRIPOS>SUBSTRUCTURE
     1 2XS         1 TEMP              0 ****  ****    0 ROOT
