@<TRIPOS>MOLECULE
2XT
   82    85     1     0     0
SMALL
bcc


@<TRIPOS>ATOM
      1 CBI          8.2860    -2.7260    -1.2850 c3         1 2XT      -0.181100
      2 CBH          7.2450    -2.1710    -0.3460 c          1 2XT       0.675100
      3 OBJ          7.1740    -2.5240     0.8200 o          1 2XT      -0.580100
      4 NBA          6.3800    -1.3000    -0.9110 ns         1 2XT      -0.577900
      5 CBD          5.3480    -0.6010    -0.1890 c6         1 2XT       0.035700
      6 CAK          4.0080    -0.7400    -0.9210 c6         1 2XT       0.140100
      7 OAZ          3.5900    -2.0760    -0.9690 oh         1 2XT      -0.557800
      8 CAX          5.6970     0.8750    -0.0090 c6         1 2XT       0.340900
      9 OBC          6.8360     0.9720     0.7490 os         1 2XT      -0.388600
     10 CBF          7.4570     2.2480     0.7570 c3         1 2XT       0.140400
     11 CBG          8.8240     2.1190     1.3980 c3         1 2XT      -0.082400
     12 CAL          9.5360     3.4620     1.4680 c3         1 2XT      -0.089100
     13 OAW          4.6470     1.5220     0.6610 os         1 2XT      -0.417600
     14 CAJ          3.4370     1.5290    -0.0640 c6         1 2XT       0.135100
     15 CBB          2.4630     2.4190     0.6790 c3         1 2XT       0.143400
     16 OBE          2.9950     3.7210     0.7290 oh         1 2XT      -0.585800
     17 CAI          2.9390     0.0840    -0.2160 c6         1 2XT       0.124100
     18 O1           1.7580     0.0440    -0.9960 os         1 2XT      -0.393600
     19 C1           0.5830    -0.1910    -0.3090 c6         1 2XT       0.318900
     20 C2          -0.5890     0.2630    -1.1830 c6         1 2XT       0.099100
     21 O2          -0.5350     1.6430    -1.4370 oh         1 2XT      -0.601800
     22 O5           0.4860    -1.5570    -0.0290 os         1 2XT      -0.386600
     23 C5          -0.6560    -1.8610     0.7440 c6         1 2XT       0.159100
     24 C6          -0.6060    -3.3230     1.1310 c3         1 2XT       0.151400
     25 O6           0.4670    -3.5180     2.0200 oh         1 2XT      -0.589800
     26 C4          -1.9330    -1.5060    -0.0090 c6         1 2XT       0.119100
     27 O4          -2.0640    -2.3600    -1.1170 oh         1 2XT      -0.579800
     28 C3          -1.8810    -0.0370    -0.4310 c6         1 2XT       0.123100
     29 O3          -3.0240     0.2160    -1.2110 os         1 2XT      -0.429600
     30 CBK         -3.5740     1.5100    -1.1490 c3         1 2XT       0.136100
     31 CBL         -5.0450     1.3890    -1.3520 cc         1 2XT       0.251600
     32 CAM         -5.8510     0.2900    -1.2040 cd         1 2XT      -0.218600
     33 NAN         -5.8210     2.4280    -1.7220 nc         1 2XT      -0.356000
     34 NBN         -7.0470     2.0330    -1.8030 nd         1 2XT      -0.206800
     35 NBM         -7.0800     0.7490    -1.5020 na         1 2XT       0.104400
     36 CBO         -8.3380     0.0290    -1.4570 c3         1 2XT       0.095600
     37 CBP         -8.7650    -0.2620    -0.0430 ca         1 2XT      -0.126300
     38 CAO         -8.9730     0.7810     0.8560 ca         1 2XT      -0.107000
     39 CAP         -9.3700     0.5150     2.1580 ca         1 2XT      -0.129000
     40 CAQ         -9.5650    -0.7980     2.5730 ca         1 2XT      -0.114000
     41 CAR         -9.3610    -1.8400     1.6820 ca         1 2XT      -0.129000
     42 CAS         -8.9590    -1.5720     0.3780 ca         1 2XT      -0.107000
     43 H1           9.2430    -2.7960    -0.7730 hc         1 2XT       0.060033
     44 H2           7.9980    -3.7360    -1.5810 hc         1 2XT       0.060033
     45 H3           8.4140    -2.1350    -2.1900 hc         1 2XT       0.060033
     46 H4           6.5530    -1.0150    -1.8630 hn         1 2XT       0.304500
     47 H5           5.2580    -1.0550     0.8010 h1         1 2XT       0.123700
     48 H6           4.1280    -0.3290    -1.9380 h1         1 2XT       0.029700
     49 H7           4.2620    -2.5770    -1.4440 ho         1 2XT       0.408000
     50 H8           5.8380     1.3470    -1.0020 h2         1 2XT       0.012700
     51 H9           7.5560     2.6250    -0.2700 h1         1 2XT       0.032700
     52 H10          6.8500     2.9720     1.3120 h1         1 2XT       0.032700
     53 H11          8.7140     1.7060     2.4050 hc         1 2XT       0.053200
     54 H12          9.4250     1.4070     0.8270 hc         1 2XT       0.053200
     55 H13         10.5180     3.3590     1.9300 hc         1 2XT       0.034033
     56 H14          9.6830     3.8890     0.4740 hc         1 2XT       0.034033
     57 H15          8.9690     4.1840     2.0580 hc         1 2XT       0.034033
     58 H16          3.6000     1.9480    -1.0710 h1         1 2XT       0.050700
     59 H17          1.5020     2.4050     0.1550 h1         1 2XT       0.033700
     60 H18          2.2920     2.0090     1.6850 h1         1 2XT       0.033700
     61 H19          2.3200     4.3000     1.0940 ho         1 2XT       0.405000
     62 H20          2.7630    -0.3410     0.7810 h1         1 2XT       0.085700
     63 H21          0.5610     0.3830     0.6380 h2         1 2XT       0.020700
     64 H22         -0.5720    -0.3220    -2.1130 h1         1 2XT       0.081700
     65 H23          0.1650     1.8100    -2.0760 ho         1 2XT       0.423000
     66 H24         -0.6560    -1.2610     1.6690 h1         1 2XT       0.045700
     67 H25         -1.5680    -3.5800     1.5940 h1         1 2XT       0.037200
     68 H26         -0.5060    -3.9410     0.2310 h1         1 2XT       0.037200
     69 H27          0.4840    -4.4470     2.2660 ho         1 2XT       0.407000
     70 H28         -2.7760    -1.6250     0.6880 h1         1 2XT       0.041700
     71 H29         -2.8720    -2.1210    -1.5830 ho         1 2XT       0.419000
     72 H30         -1.8990     0.5760     0.4830 h1         1 2XT       0.049700
     73 H31         -3.3710     1.9700    -0.1750 h1         1 2XT       0.055700
     74 H32         -3.1450     2.1740    -1.9060 h1         1 2XT       0.055700
     75 H33         -5.6580    -0.7320    -0.9280 h4         1 2XT       0.188000
     76 H34         -9.0690     0.6520    -1.9710 h1         1 2XT       0.079200
     77 H35         -8.2320    -0.8920    -2.0290 h1         1 2XT       0.079200
     78 H36         -8.8250     1.8070     0.5390 ha         1 2XT       0.137500
     79 H37         -9.5290     1.3320     2.8490 ha         1 2XT       0.136000
     80 H38         -9.8760    -1.0050     3.5890 ha         1 2XT       0.135000
     81 H39         -9.5090    -2.8640     1.9980 ha         1 2XT       0.136000
     82 H40         -8.7980    -2.3900    -0.3140 ha         1 2XT       0.137500
@<TRIPOS>BOND
     1     1     2 1   
     2     1    43 1   
     3     1    44 1   
     4     1    45 1   
     5     2     3 2   
     6     2     4 1   
     7     4     5 1   
     8     4    46 1   
     9     5     6 1   
    10     5     8 1   
    11     5    47 1   
    12     6     7 1   
    13     6    17 1   
    14     6    48 1   
    15     7    49 1   
    16     8     9 1   
    17     8    13 1   
    18     8    50 1   
    19     9    10 1   
    20    10    11 1   
    21    10    51 1   
    22    10    52 1   
    23    11    12 1   
    24    11    53 1   
    25    11    54 1   
    26    12    55 1   
    27    12    56 1   
    28    12    57 1   
    29    13    14 1   
    30    14    15 1   
    31    14    17 1   
    32    14    58 1   
    33    15    16 1   
    34    15    59 1   
    35    15    60 1   
    36    16    61 1   
    37    17    18 1   
    38    17    62 1   
    39    18    19 1   
    40    19    20 1   
    41    19    22 1   
    42    19    63 1   
    43    20    21 1   
    44    20    28 1   
    45    20    64 1   
    46    21    65 1   
    47    22    23 1   
    48    23    24 1   
    49    23    26 1   
    50    23    66 1   
    51    24    25 1   
    52    24    67 1   
    53    24    68 1   
    54    25    69 1   
    55    26    27 1   
    56    26    28 1   
    57    26    70 1   
    58    27    71 1   
    59    28    29 1   
    60    28    72 1   
    61    29    30 1   
    62    30    31 1   
    63    30    73 1   
    64    30    74 1   
    65    31    32 2   
    66    31    33 1   
    67    32    35 1   
    68    32    75 1   
    69    33    34 2   
    70    34    35 1   
    71    35    36 1   
    72    36    37 1   
    73    36    76 1   
    74    36    77 1   
    75    37    38 ar  
    76    37    42 ar  
    77    38    39 ar  
    78    38    78 1   
    79    39    40 ar  
    80    39    79 1   
    81    40    41 ar  
    82    40    80 1   
    83    41    42 ar  
    84    41    81 1   
    85    42    82 1   
@<TRIPOS>SUBSTRUCTURE
     1 2XT         1 TEMP              0 ****  ****    0 ROOT
