@<TRIPOS>MOLECULE
2XT
   82    85     1     0     0
SMALL
No Charge or Current Charge


@<TRIPOS>ATOM
      1 CBI          8.7030    -2.0680    -2.2890 c3         1 2XT      -0.181100
      2 CBH          7.6950    -1.8190    -1.1750 c          1 2XT       0.608100
      3 OBJ          7.8380    -2.2670    -0.0470 o          1 2XT      -0.580100
      4 NBA          6.6020    -1.0660    -1.5440 ns         1 2XT      -0.510900
      5 CBD          5.5490    -0.5670    -0.6170 c6         1 2XT       0.035700
      6 CAK          4.1460    -0.6030    -1.2890 c6         1 2XT       0.163300
      7 OAZ          3.8400    -1.9420    -1.7220 oh         1 2XT      -0.680000
      8 CAX          5.8300     0.8880    -0.1350 c6         1 2XT       0.387300
      9 OBC          7.0870     0.9610     0.5550 os         1 2XT      -0.435000
     10 CBF          7.5320     2.2760     0.9210 c3         1 2XT       0.163600
     11 CBG          8.9070     2.1280     1.6000 c3         1 2XT      -0.082400
     12 CAL          9.5090     3.4760     2.0420 c3         1 2XT      -0.089100
     13 OAW          4.7880     1.3060     0.7640 os         1 2XT      -0.464000
     14 CAJ          3.4760     1.3880     0.1530 c6         1 2XT       0.158300
     15 CBB          2.5040     2.0510     1.1850 c3         1 2XT       0.166600
     16 OBE          2.9920     3.3030     1.7080 oh         1 2XT      -0.708000
     17 CAI          3.0440    -0.0370    -0.3330 c6         1 2XT       0.147300
     18 O1           1.7500    -0.0420    -1.0010 os         1 2XT      -0.440000
     19 C1           0.5990    -0.3070    -0.1700 c6         1 2XT       0.365300
     20 C2          -0.7150    -0.0450    -0.9770 c6         1 2XT       0.122300
     21 O2          -0.7410     1.3140    -1.4850 oh         1 2XT      -0.724000
     22 O5           0.6340    -1.6710     0.2740 os         1 2XT      -0.433000
     23 C5          -0.4260    -1.9800     1.2110 c6         1 2XT       0.182300
     24 C6          -0.1900    -3.4140     1.7890 c3         1 2XT       0.174600
     25 O6           1.0710    -3.5500     2.4780 oh         1 2XT      -0.712000
     26 C4          -1.8240    -1.8220     0.5290 c6         1 2XT       0.142300
     27 O4          -2.0650    -2.8030    -0.5010 oh         1 2XT      -0.702000
     28 C3          -1.9700    -0.3960    -0.0910 c6         1 2XT       0.146300
     29 O3          -3.2280    -0.3620    -0.8260 os         1 2XT      -0.476000
     30 CBK         -3.7190     0.9140    -1.2980 c3         1 2XT       0.159300
     31 CBL         -5.1700     0.7700    -1.6950 cc         1 2XT       0.186300
     32 CAM         -6.1380     0.0390    -1.0790 cd         1 2XT      -0.186000
     33 NAN         -5.6850     1.4190    -2.7840 nc         1 2XT      -0.356000
     34 NBN         -6.9570     1.1200    -2.8820 nd         1 2XT      -0.206800
     35 NBM         -7.2570     0.2740    -1.8440 na         1 2XT       0.125800
     36 CBO         -8.6120    -0.2660    -1.6420 c3         1 2XT       0.124900
     37 CBP         -9.1750    -0.0270    -0.2400 ca         1 2XT      -0.126300
     38 CAO         -9.1010     1.2500     0.3550 ca         1 2XT      -0.089000
     39 CAP         -9.6210     1.4630     1.6440 ca         1 2XT      -0.111000
     40 CAQ        -10.2210     0.4040     2.3450 ca         1 2XT      -0.096000
     41 CAR        -10.3020    -0.8690     1.7560 ca         1 2XT      -0.111000
     42 CAS         -9.7830    -1.0830     0.4670 ca         1 2XT      -0.089000
     43 H1           9.5490    -2.6830    -1.9630 hc         1 2XT       0.060033
     44 H2           8.1860    -2.5130    -3.1470 hc         1 2XT       0.060033
     45 H3           9.0340    -1.1040    -2.6900 hc         1 2XT       0.060033
     46 H4           6.6050    -0.7240    -2.4990 hn         1 2XT       0.304500
     47 H5           5.5240    -1.2090     0.2760 h1         1 2XT       0.123700
     48 H6           4.1850     0.0550    -2.1710 h1         1 2XT       0.029700
     49 H7           4.6650    -2.3000    -2.1210 ho         1 2XT       0.507000
     50 H8           5.8580     1.5620    -1.0040 h2         1 2XT       0.012700
     51 H9           7.6270     2.9150     0.0330 h1         1 2XT       0.032700
     52 H10          6.8280     2.7490     1.6180 h1         1 2XT       0.032700
     53 H11          8.8080     1.4750     2.4760 hc         1 2XT       0.053200
     54 H12          9.6010     1.6360     0.9070 hc         1 2XT       0.053200
     55 H13         10.4840     3.3220     2.5190 hc         1 2XT       0.034033
     56 H14          9.6500     4.1400     1.1800 hc         1 2XT       0.034033
     57 H15          8.8500     3.9780     2.7620 hc         1 2XT       0.034033
     58 H16          3.5400     2.0570    -0.7180 h1         1 2XT       0.050700
     59 H17          1.5410     2.2200     0.6860 h1         1 2XT       0.033700
     60 H18          2.3350     1.3390     2.0040 h1         1 2XT       0.033700
     61 H19          2.3560     3.5950     2.4020 ho         1 2XT       0.504000
     62 H20          2.9960    -0.7010     0.5430 h1         1 2XT       0.085700
     63 H21          0.6120     0.3540     0.7070 h2         1 2XT       0.020700
     64 H22         -0.7080    -0.7480    -1.8230 h1         1 2XT       0.081700
     65 H23          0.1070     1.4410    -1.9740 ho         1 2XT       0.522000
     66 H24         -0.3650    -1.2730     2.0520 h1         1 2XT       0.045700
     67 H25         -1.0180    -3.6440     2.4740 h1         1 2XT       0.037200
     68 H26         -0.2440    -4.1340     0.9610 h1         1 2XT       0.037200
     69 H27          1.1630    -4.5000     2.7240 ho         1 2XT       0.506000
     70 H28         -2.5920    -1.9250     1.3100 h1         1 2XT       0.041700
     71 H29         -2.7720    -2.3990    -1.0600 ho         1 2XT       0.518000
     72 H30         -2.0300     0.3280     0.7350 h1         1 2XT       0.049700
     73 H31         -3.6450     1.6770    -0.5120 h1         1 2XT       0.055700
     74 H32         -3.1480     1.2570    -2.1700 h1         1 2XT       0.055700
     75 H33         -6.1180    -0.5930    -0.2010 h4         1 2XT       0.170000
     76 H34         -9.2860     0.1910    -2.3780 h1         1 2XT       0.079200
     77 H35         -8.5790    -1.3410    -1.8520 h1         1 2XT       0.079200
     78 H36         -8.6430     2.0800    -0.1790 ha         1 2XT       0.119500
     79 H37         -9.5600     2.4500     2.0980 ha         1 2XT       0.118000
     80 H38        -10.6230     0.5690     3.3420 ha         1 2XT       0.117000
     81 H39        -10.7680    -1.6890     2.2970 ha         1 2XT       0.118000
     82 H40         -9.8520    -2.0740     0.0210 ha         1 2XT       0.119500
@<TRIPOS>BOND
     1     1     2 1   
     2     1    43 1   
     3     1    44 1   
     4     1    45 1   
     5     2     3 2   
     6     2     4 1   
     7     4     5 1   
     8     4    46 1   
     9     5     6 1   
    10     5     8 1   
    11     5    47 1   
    12     6     7 1   
    13     6    17 1   
    14     6    48 1   
    15     7    49 1   
    16     8     9 1   
    17     8    13 1   
    18     8    50 1   
    19     9    10 1   
    20    10    11 1   
    21    10    51 1   
    22    10    52 1   
    23    11    12 1   
    24    11    53 1   
    25    11    54 1   
    26    12    55 1   
    27    12    56 1   
    28    12    57 1   
    29    13    14 1   
    30    14    15 1   
    31    14    17 1   
    32    14    58 1   
    33    15    16 1   
    34    15    59 1   
    35    15    60 1   
    36    16    61 1   
    37    17    18 1   
    38    17    62 1   
    39    18    19 1   
    40    19    20 1   
    41    19    22 1   
    42    19    63 1   
    43    20    21 1   
    44    20    28 1   
    45    20    64 1   
    46    21    65 1   
    47    22    23 1   
    48    23    24 1   
    49    23    26 1   
    50    23    66 1   
    51    24    25 1   
    52    24    67 1   
    53    24    68 1   
    54    25    69 1   
    55    26    27 1   
    56    26    28 1   
    57    26    70 1   
    58    27    71 1   
    59    28    29 1   
    60    28    72 1   
    61    29    30 1   
    62    30    31 1   
    63    30    73 1   
    64    30    74 1   
    65    31    32 2   
    66    31    33 1   
    67    32    35 1   
    68    32    75 1   
    69    33    34 2   
    70    34    35 1   
    71    35    36 1   
    72    36    37 1   
    73    36    76 1   
    74    36    77 1   
    75    37    38 ar  
    76    37    42 ar  
    77    38    39 ar  
    78    38    78 1   
    79    39    40 ar  
    80    39    79 1   
    81    40    41 ar  
    82    40    80 1   
    83    41    42 ar  
    84    41    81 1   
    85    42    82 1   
@<TRIPOS>SUBSTRUCTURE
     1 2XT         1 TEMP              0 ****  ****    0 ROOT
