@<TRIPOS>MOLECULE
2XU
   85    88     1     0     0
SMALL
No Charge or Current Charge


@<TRIPOS>ATOM
      1 C8           9.6580     2.1800     2.5710 c3         1 2XU      -0.183100
      2 C7           8.6980     1.9260     1.4170 c          1 2XU       0.608100
      3 O7           8.8820     2.3790     0.2970 o          1 2XU      -0.577100
      4 N2           7.5980     1.1620     1.7390 ns         1 2XU      -0.510900
      5 C2           6.5880     0.6560     0.7680 c6         1 2XU       0.035700
      6 C3           5.1590     0.6750     1.3840 c6         1 2XU       0.165300
      7 O3           4.8230     2.0090     1.8100 oh         1 2XU      -0.682000
      8 C1           6.9030    -0.7940     0.2920 c6         1 2XU       0.385300
      9 O1           8.1880    -0.8520    -0.3470 os         1 2XU      -0.435000
     10 CBC          8.6610    -2.1600    -0.7000 c3         1 2XU       0.162600
     11 CBD         10.0610    -1.9950    -1.3220 c3         1 2XU      -0.081400
     12 CBE         10.6930    -3.3360    -1.7440 c3         1 2XU      -0.089100
     13 O5           5.9030    -1.2180    -0.6500 os         1 2XU      -0.462000
     14 C5           4.5680    -1.3160    -0.0920 c6         1 2XU       0.157300
     15 C6           3.6450    -1.9840    -1.1660 c3         1 2XU       0.166600
     16 O6           4.1680    -3.2280    -1.6750 oh         1 2XU      -0.709000
     17 C4           4.1020     0.1020     0.3820 c6         1 2XU       0.147300
     18 O4           2.7820     0.0920     0.9960 os         1 2XU      -0.443000
     19 CBG          1.6620     0.3480     0.1210 c6         1 2XU       0.366300
     20 CBM          0.3210     0.0720     0.8750 c6         1 2XU       0.120300
     21 OBK          0.2890    -1.2880     1.3820 oh         1 2XU      -0.724000
     22 OBF          1.7040     1.7130    -0.3210 os         1 2XU      -0.435000
     23 CBI          0.6760     2.0180    -1.2950 c6         1 2XU       0.147300
     24 CBL          0.9250     3.4530    -1.8650 c3         1 2XU       0.171600
     25 OAJ          2.2070     3.5900    -2.5080 oh         1 2XU      -0.702000
     26 CBH         -0.7430     1.8510    -0.6620 c6         1 2XU       0.139300
     27 OAO         -1.0140     2.8320     0.3630 oh         1 2XU      -0.689000
     28 CBN         -0.8980     0.4150    -0.0640 c6         1 2XU       0.189300
     29 OBJ         -2.1880     0.3510     0.6100 os         1 2XU      -0.449000
     30 CBO         -2.6810    -0.9380     1.0390 c3         1 2XU       0.152300
     31 CBP         -4.1500    -0.8180     1.3710 cc         1 2XU       0.191300
     32 CAX         -5.1010    -0.1030     0.7110 cd         1 2XU      -0.173000
     33 NBQ         -4.7010    -1.4730     2.4380 nc         1 2XU      -0.353000
     34 NBR         -5.9800    -1.1930     2.4810 nd         1 2XU      -0.198800
     35 N           -6.2480    -0.3570     1.4270 na         1 2XU       0.125800
     36 CA          -7.5980     0.1690     1.1790 c3         1 2XU      -0.027400
     37 C           -8.4060    -0.6350     0.1510 c          1 2XU       0.565700
     38 O           -7.9060    -1.5830    -0.4480 o          1 2XU      -0.492100
     39 CAF         -9.8480    -0.2320    -0.1180 ca         1 2XU      -0.136600
     40 CAD        -10.6380    -0.9890    -1.0190 ca         1 2XU      -0.153000
     41 CAE        -11.9720    -0.6320    -1.2810 ca         1 2XU       0.133100
     42 OAP        -12.7250    -1.3680    -2.1490 oh         1 2XU      -0.529100
     43 CAC        -12.5380     0.4850    -0.6510 ca         1 2XU      -0.115000
     44 CAA        -11.7710     1.2480     0.2430 ca         1 2XU      -0.084000
     45 CAH        -10.4360     0.8950     0.5090 ca         1 2XU      -0.114000
     46 H1           9.9810     1.2170     2.9830 hc         1 2XU       0.060033
     47 H2          10.5110     2.8030     2.2820 hc         1 2XU       0.060033
     48 H3           9.1020     2.6160     3.4090 hc         1 2XU       0.060033
     49 H4           7.5660     0.8160     2.6920 hn         1 2XU       0.302500
     50 H5           6.5920     1.3020    -0.1220 h1         1 2XU       0.123700
     51 H6           5.1700     0.0130     2.2630 h1         1 2XU       0.029700
     52 H7           5.6280     2.3730     2.2430 ho         1 2XU       0.508000
     53 H8           6.9020    -1.4710     1.1590 h2         1 2XU       0.012700
     54 H9           8.7260    -2.8010     0.1890 h1         1 2XU       0.032200
     55 H10          7.9900    -2.6370    -1.4260 h1         1 2XU       0.032200
     56 H11          9.9900    -1.3400    -2.1990 hc         1 2XU       0.052700
     57 H12         10.7200    -1.4990    -0.6000 hc         1 2XU       0.052700
     58 H13         11.6850    -3.1700    -2.1810 hc         1 2XU       0.034033
     59 H14         10.8060    -4.0010    -0.8800 hc         1 2XU       0.034033
     60 H15         10.0690    -3.8410    -2.4920 hc         1 2XU       0.034033
     61 H16          4.6040    -1.9880     0.7780 h1         1 2XU       0.050700
     62 H17          2.6650    -2.1660    -0.7070 h1         1 2XU       0.034200
     63 H18          3.5010    -1.2700    -1.9880 h1         1 2XU       0.034200
     64 H19          3.5630    -3.5240    -2.3950 ho         1 2XU       0.505000
     65 H20          4.0830     0.7700    -0.4930 h1         1 2XU       0.085700
     66 H21          1.7160    -0.3110    -0.7560 h2         1 2XU       0.020700
     67 H22          0.2860     0.7770     1.7200 h1         1 2XU       0.087700
     68 H23          1.1220    -1.4080     1.8990 ho         1 2XU       0.521000
     69 H24          0.7700     1.3120    -2.1340 h1         1 2XU       0.048700
     70 H25          0.1220     3.6800    -2.5800 h1         1 2XU       0.026700
     71 H26          0.8420     4.1740    -1.0410 h1         1 2XU       0.026700
     72 H27          2.3060     4.5400    -2.7500 ho         1 2XU       0.506000
     73 H28         -1.4850     1.9570    -1.4670 h1         1 2XU       0.045700
     74 H29         -1.7730     2.4630     0.8750 ho         1 2XU       0.500000
     75 H30         -0.9090    -0.3000    -0.8990 h1         1 2XU       0.044700
     76 H31         -2.5600    -1.6880     0.2470 h1         1 2XU       0.055700
     77 H32         -2.1470    -1.2870     1.9320 h1         1 2XU       0.055700
     78 H33         -5.0500     0.5300    -0.1650 h4         1 2XU       0.173000
     79 H34         -8.1570     0.1740     2.1210 h1         1 2XU       0.094200
     80 H35         -7.5180     1.2000     0.8180 h1         1 2XU       0.094200
     81 H36        -10.2120    -1.8590    -1.5140 ha         1 2XU       0.136000
     82 H37        -12.1760    -2.1050    -2.4940 ho         1 2XU       0.471000
     83 H38        -13.5700     0.7590    -0.8550 ha         1 2XU       0.134000
     84 H39        -12.2110     2.1150     0.7310 ha         1 2XU       0.123000
     85 H40         -9.8740     1.5120     1.2050 ha         1 2XU       0.115000
@<TRIPOS>BOND
     1     1     2 1   
     2     1    46 1   
     3     1    47 1   
     4     1    48 1   
     5     2     3 2   
     6     2     4 1   
     7     4     5 1   
     8     4    49 1   
     9     5     6 1   
    10     5     8 1   
    11     5    50 1   
    12     6     7 1   
    13     6    17 1   
    14     6    51 1   
    15     7    52 1   
    16     8     9 1   
    17     8    13 1   
    18     8    53 1   
    19     9    10 1   
    20    10    11 1   
    21    10    54 1   
    22    10    55 1   
    23    11    12 1   
    24    11    56 1   
    25    11    57 1   
    26    12    58 1   
    27    12    59 1   
    28    12    60 1   
    29    13    14 1   
    30    14    15 1   
    31    14    17 1   
    32    14    61 1   
    33    15    16 1   
    34    15    62 1   
    35    15    63 1   
    36    16    64 1   
    37    17    18 1   
    38    17    65 1   
    39    18    19 1   
    40    19    20 1   
    41    19    22 1   
    42    19    66 1   
    43    20    21 1   
    44    20    28 1   
    45    20    67 1   
    46    21    68 1   
    47    22    23 1   
    48    23    24 1   
    49    23    26 1   
    50    23    69 1   
    51    24    25 1   
    52    24    70 1   
    53    24    71 1   
    54    25    72 1   
    55    26    27 1   
    56    26    28 1   
    57    26    73 1   
    58    27    74 1   
    59    28    29 1   
    60    28    75 1   
    61    29    30 1   
    62    30    31 1   
    63    30    76 1   
    64    30    77 1   
    65    31    32 2   
    66    31    33 1   
    67    32    35 1   
    68    32    78 1   
    69    33    34 2   
    70    34    35 1   
    71    35    36 1   
    72    36    37 1   
    73    36    79 1   
    74    36    80 1   
    75    37    38 2   
    76    37    39 1   
    77    39    40 ar  
    78    39    45 ar  
    79    40    41 ar  
    80    40    81 1   
    81    41    42 1   
    82    41    43 ar  
    83    42    82 1   
    84    43    44 ar  
    85    43    83 1   
    86    44    45 ar  
    87    44    84 1   
    88    45    85 1   
@<TRIPOS>SUBSTRUCTURE
     1 2XU         1 TEMP              0 ****  ****    0 ROOT
