@<TRIPOS>MOLECULE
2XU
   85    88     1     0     0
SMALL
bcc


@<TRIPOS>ATOM
      1 C8           9.1740     2.9230     1.3550 c3         1 2XU      -0.183100
      2 C7           8.1400     2.3960     0.3920 c          1 2XU       0.675100
      3 O7           8.1350     2.6970    -0.7900 o          1 2XU      -0.577100
      4 N2           7.2330     1.5610     0.9490 ns         1 2XU      -0.577900
      5 C2           6.2740     0.7920     0.1990 c6         1 2XU       0.035700
      6 C3           4.8950     0.8920     0.8600 c6         1 2XU       0.142100
      7 O3           4.4110     2.2050     0.8350 oh         1 2XU      -0.559800
      8 C1           6.6950    -0.6720     0.0940 c6         1 2XU       0.338900
      9 O1           7.8830    -0.7460    -0.5860 os         1 2XU      -0.388600
     10 CBC          8.5860    -1.9720    -0.4560 c3         1 2XU       0.139400
     11 CBD          9.9950    -1.7870    -0.9810 c3         1 2XU      -0.081400
     12 CBE         10.8020    -3.0730    -0.8700 c3         1 2XU      -0.089100
     13 O5           5.7150    -1.3850    -0.6140 os         1 2XU      -0.415600
     14 C5           4.4730    -1.4340     0.0510 c6         1 2XU       0.134100
     15 C6           3.5770    -2.3830    -0.7180 c3         1 2XU       0.143400
     16 O6           4.1690    -3.6590    -0.7130 oh         1 2XU      -0.586800
     17 C4           3.8960    -0.0130     0.1510 c6         1 2XU       0.124100
     18 O4           2.7000    -0.0220     0.9080 os         1 2XU      -0.396600
     19 CBG          1.5190     0.1340     0.2090 c6         1 2XU       0.319900
     20 CBM          0.3750    -0.3720     1.0930 c6         1 2XU       0.097100
     21 OBK          0.5020    -1.7480     1.3460 oh         1 2XU      -0.601800
     22 OBF          1.3490     1.4860    -0.1000 os         1 2XU      -0.388600
     23 CBI          0.1800     1.7190    -0.8600 c6         1 2XU       0.124100
     24 CBL          0.1540     3.1740    -1.2700 c3         1 2XU       0.148400
     25 OAJ          1.2160     3.4200    -2.1580 oh         1 2XU      -0.579800
     26 CBH         -1.0650     1.3230    -0.0610 c6         1 2XU       0.116100
     27 OAO         -1.2180     2.1050     1.0990 oh         1 2XU      -0.566800
     28 CBN         -0.9360    -0.1410     0.3500 c6         1 2XU       0.166100
     29 OBJ         -2.0580    -0.4950     1.1150 os         1 2XU      -0.402600
     30 CBO         -2.5080    -1.8210     1.0000 c3         1 2XU       0.129100
     31 CBP         -3.9940    -1.8120     1.1210 cc         1 2XU       0.256600
     32 CAX         -4.8560    -0.7490     1.1570 cd         1 2XU      -0.205600
     33 NBQ         -4.7240    -2.9440     1.2130 nc         1 2XU      -0.353000
     34 NBR         -5.9730    -2.6390     1.2960 nd         1 2XU      -0.198800
     35 N           -6.0670    -1.3210     1.2770 na         1 2XU       0.104400
     36 CA          -7.3530    -0.6850     1.2860 c3         1 2XU      -0.056700
     37 C           -7.8270    -0.3700    -0.1260 c          1 2XU       0.565700
     38 O           -7.1280    -0.6260    -1.0770 o          1 2XU      -0.492100
     39 CAF         -9.1590     0.2670    -0.2710 ca         1 2XU      -0.136600
     40 CAD         -9.5870     0.6120    -1.5530 ca         1 2XU      -0.171000
     41 CAE        -10.8240     1.2130    -1.7390 ca         1 2XU       0.133100
     42 OAP        -11.2830     1.5710    -2.9510 oh         1 2XU      -0.490100
     43 CAC        -11.6410     1.4670    -0.6360 ca         1 2XU      -0.133000
     44 CAA        -11.2130     1.1210     0.6330 ca         1 2XU      -0.102000
     45 CAH         -9.9760     0.5230     0.8280 ca         1 2XU      -0.132000
     46 H1          10.0430     2.2630     1.3440 hc         1 2XU       0.060033
     47 H2           9.5030     3.9130     1.0480 hc         1 2XU       0.060033
     48 H3           8.8110     2.9730     2.3810 hc         1 2XU       0.060033
     49 H4           7.3620     1.3130     1.9190 hn         1 2XU       0.302500
     50 H5           6.2150     1.2070    -0.8100 h1         1 2XU       0.123700
     51 H6           4.9910     0.5280     1.8970 h1         1 2XU       0.029700
     52 H7           5.0340     2.7570     1.3210 ho         1 2XU       0.409000
     53 H8           6.7930    -1.1010     1.1100 h2         1 2XU       0.012700
     54 H9           8.6160    -2.2770     0.5990 h1         1 2XU       0.032200
     55 H10          8.0800    -2.7720    -1.0090 h1         1 2XU       0.032200
     56 H11          9.9560    -1.4630    -2.0240 hc         1 2XU       0.052700
     57 H12         10.4860    -0.9890    -0.4180 hc         1 2XU       0.052700
     58 H13         11.8150    -2.9330    -1.2450 hc         1 2XU       0.034033
     59 H14         10.8770    -3.4070     0.1670 hc         1 2XU       0.034033
     60 H15         10.3460    -3.8810    -1.4450 hc         1 2XU       0.034033
     61 H16          4.6050    -1.8250     1.0740 h1         1 2XU       0.050700
     62 H17          2.5920    -2.4010    -0.2400 h1         1 2XU       0.034200
     63 H18          3.4370    -2.0010    -1.7390 h1         1 2XU       0.034200
     64 H19          3.5430    -4.2750    -1.1030 ho         1 2XU       0.406000
     65 H20          3.7180     0.3770    -0.8610 h1         1 2XU       0.085700
     66 H21          1.5310    -0.4600    -0.7260 h2         1 2XU       0.020700
     67 H22          0.3730     0.2100     2.0250 h1         1 2XU       0.087700
     68 H23          1.2220    -1.8790     1.9700 ho         1 2XU       0.422000
     69 H24          0.1930     1.1030    -1.7760 h1         1 2XU       0.048700
     70 H25         -0.8210     3.3720    -1.7370 h1         1 2XU       0.026700
     71 H26          0.2180     3.8070    -0.3760 h1         1 2XU       0.026700
     72 H27          1.1830     4.3470    -2.4100 ho         1 2XU       0.407000
     73 H28         -1.9380     1.4120    -0.7210 h1         1 2XU       0.045700
     74 H29         -1.7500     2.8770     0.8870 ho         1 2XU       0.401000
     75 H30         -0.9100    -0.7350    -0.5780 h1         1 2XU       0.044700
     76 H31         -2.2240    -2.2540     0.0330 h1         1 2XU       0.055700
     77 H32         -2.0730    -2.4680     1.7700 h1         1 2XU       0.055700
     78 H33         -4.7120     0.3170     1.1210 h4         1 2XU       0.191000
     79 H34         -8.0590    -1.3490     1.7870 h1         1 2XU       0.094200
     80 H35         -7.2970     0.2320     1.8750 h1         1 2XU       0.094200
     81 H36         -8.9480     0.4120    -2.4060 ha         1 2XU       0.154000
     82 H37        -10.6400     1.3550    -3.6360 ho         1 2XU       0.432000
     83 H38        -12.6050     1.9380    -0.7810 ha         1 2XU       0.152000
     84 H39        -11.8520     1.3210     1.4830 ha         1 2XU       0.141000
     85 H40         -9.6710     0.2680     1.8340 ha         1 2XU       0.133000
@<TRIPOS>BOND
     1     1     2 1   
     2     1    46 1   
     3     1    47 1   
     4     1    48 1   
     5     2     3 2   
     6     2     4 1   
     7     4     5 1   
     8     4    49 1   
     9     5     6 1   
    10     5     8 1   
    11     5    50 1   
    12     6     7 1   
    13     6    17 1   
    14     6    51 1   
    15     7    52 1   
    16     8     9 1   
    17     8    13 1   
    18     8    53 1   
    19     9    10 1   
    20    10    11 1   
    21    10    54 1   
    22    10    55 1   
    23    11    12 1   
    24    11    56 1   
    25    11    57 1   
    26    12    58 1   
    27    12    59 1   
    28    12    60 1   
    29    13    14 1   
    30    14    15 1   
    31    14    17 1   
    32    14    61 1   
    33    15    16 1   
    34    15    62 1   
    35    15    63 1   
    36    16    64 1   
    37    17    18 1   
    38    17    65 1   
    39    18    19 1   
    40    19    20 1   
    41    19    22 1   
    42    19    66 1   
    43    20    21 1   
    44    20    28 1   
    45    20    67 1   
    46    21    68 1   
    47    22    23 1   
    48    23    24 1   
    49    23    26 1   
    50    23    69 1   
    51    24    25 1   
    52    24    70 1   
    53    24    71 1   
    54    25    72 1   
    55    26    27 1   
    56    26    28 1   
    57    26    73 1   
    58    27    74 1   
    59    28    29 1   
    60    28    75 1   
    61    29    30 1   
    62    30    31 1   
    63    30    76 1   
    64    30    77 1   
    65    31    32 2   
    66    31    33 1   
    67    32    35 1   
    68    32    78 1   
    69    33    34 2   
    70    34    35 1   
    71    35    36 1   
    72    36    37 1   
    73    36    79 1   
    74    36    80 1   
    75    37    38 2   
    76    37    39 1   
    77    39    40 ar  
    78    39    45 ar  
    79    40    41 ar  
    80    40    81 1   
    81    41    42 1   
    82    41    43 ar  
    83    42    82 1   
    84    43    44 ar  
    85    43    83 1   
    86    44    45 ar  
    87    44    84 1   
    88    45    85 1   
@<TRIPOS>SUBSTRUCTURE
     1 2XU         1 TEMP              0 ****  ****    0 ROOT
