@<TRIPOS>MOLECULE
2XV
   63    64     1     0     0
SMALL
No Charge or Current Charge


@<TRIPOS>ATOM
      1 CAE          5.9850    -2.3870    -2.3070 c3         1 2XV      -0.182100
      2 CAR          5.0410    -2.0340    -1.1660 c          1 2XV       0.608100
      3 OAU          5.1900    -2.4620    -0.0320 o          1 2XV      -0.577100
      4 NBA          3.9930    -1.2110    -1.5190 ns         1 2XV      -0.513900
      5 CAG          3.0190    -0.6060    -0.5690 c6         1 2XV       0.037700
      6 CAF          1.5890    -0.5650    -1.1820 c6         1 2XV       0.165300
      7 OBF          1.1730    -1.8930    -1.5540 oh         1 2XV      -0.681000
      8 CAS          3.4210     0.8410    -0.1540 c6         1 2XV       0.382300
      9 OAV          4.7100     0.8510     0.4770 os         1 2XV      -0.426000
     10 CAK          5.2570     2.1420     0.7720 c3         1 2XV       0.190800
     11 CAB          6.6390     1.9250     1.3490 c2         1 2XV      -0.211200
     12 CAA          7.7800     1.8660     0.6420 c2         1 2XV      -0.311000
     13 OAY          2.4510     1.3620     0.7710 os         1 2XV      -0.463000
     14 CAN          1.1220     1.5160     0.2120 c6         1 2XV       0.156300
     15 CAJ          0.2440     2.2800     1.2580 c3         1 2XV       0.166600
     16 OBE          0.8410     3.5110     1.7160 oh         1 2XV      -0.709000
     17 CAM          0.5710     0.1100    -0.2030 c6         1 2XV       0.148300
     18 O1          -0.7480     0.1720    -0.8160 os         1 2XV      -0.443000
     19 C1          -1.8780     0.0200     0.0710 c6         1 2XV       0.367300
     20 C2          -3.2040     0.3420    -0.6930 c6         1 2XV       0.121300
     21 O2          -3.1580     1.6800    -1.2570 oh         1 2XV      -0.728000
     22 O5          -1.9160    -1.3260     0.5690 os         1 2XV      -0.435000
     23 C5          -2.9570    -1.5290     1.5550 c6         1 2XV       0.146300
     24 C6          -2.7910    -2.9510     2.1840 c3         1 2XV       0.171600
     25 O6          -1.5170    -3.1370     2.8320 oh         1 2XV      -0.704000
     26 C4          -4.3660    -1.3050     0.9160 c6         1 2XV       0.141300
     27 O4          -4.6950    -2.3110    -0.0670 oh         1 2XV      -0.687000
     28 C3          -4.4360     0.1120     0.2610 c6         1 2XV       0.185300
     29 O3          -5.7220     0.2310    -0.4110 os         1 2XV      -0.433000
     30 CAQ         -6.1320     1.5260    -0.8870 c3         1 2XV       0.250700
     31 CAD         -7.5670     1.4660    -1.1990 c1         1 2XV      -0.150100
     32 CAC         -8.7500     1.4440    -1.4550 c1         1 2XV      -0.222000
     33 HAE          6.7940    -3.0560    -1.9930 hc         1 2XV       0.060033
     34 HAG          5.4050    -2.8120    -3.1340 hc         1 2XV       0.060033
     35 HAF          6.3740    -1.4610    -2.7460 hc         1 2XV       0.060033
     36 HBA          3.9860    -0.8960    -2.4830 hn         1 2XV       0.302500
     37 HAI          2.9870    -1.2130     0.3470 h1         1 2XV       0.123700
     38 HAH          1.6360     0.0580    -2.0880 h1         1 2XV       0.028700
     39 HBF          1.9530    -2.3200    -1.9740 ho         1 2XV       0.507000
     40 HAS          3.4550     1.4810    -1.0490 h2         1 2XV       0.013700
     41 HAK          5.3230     2.7540    -0.1380 h1         1 2XV       0.038700
     42 H64          4.6310     2.6770     1.4990 h1         1 2XV       0.038700
     43 HAC          6.6500     1.8110     2.4350 ha         1 2XV       0.186000
     44 HAB          8.7450     1.7040     1.1260 ha         1 2XV       0.161500
     45 HAA          7.7890     1.9730    -0.4440 ha         1 2XV       0.161500
     46 HAN          1.1930     2.1480    -0.6850 h1         1 2XV       0.050700
     47 H63         -0.7250     2.5020     0.7940 h1         1 2XV       0.034200
     48 HAJ          0.0610     1.6100     2.1090 h1         1 2XV       0.034200
     49 HBE          0.2580     3.8710     2.4240 ho         1 2XV       0.505000
     50 HAM          0.5160    -0.5200     0.6980 h1         1 2XV       0.086700
     51 H1          -1.7820     0.7110     0.9190 h2         1 2XV       0.018700
     52 H21         -3.2820    -0.3940    -1.5070 h1         1 2XV       0.089700
     53 H22         -2.3200     1.7320    -1.7760 ho         1 2XV       0.521000
     54 H5          -2.8190    -0.7960     2.3640 h1         1 2XV       0.046700
     55 H62         -3.6030    -3.1010     2.9080 h1         1 2XV       0.028700
     56 H61         -2.9190    -3.7000     1.3900 h1         1 2XV       0.028700
     57 H66         -1.4730    -4.0800     3.1140 ho         1 2XV       0.507000
     58 H41         -5.1100    -1.3340     1.7260 h1         1 2XV       0.046700
     59 H42         -5.4520    -1.9360    -0.5770 ho         1 2XV       0.503000
     60 H3          -4.3990     0.8590     1.0670 h1         1 2XV       0.042700
     61 HAQ         -5.9650     2.2980    -0.1250 h1         1 2XV       0.048200
     62 H65         -5.5920     1.8050    -1.8000 h1         1 2XV       0.048200
     63 HAD         -9.7980     1.4120    -1.6780 ha         1 2XV       0.255000
@<TRIPOS>BOND
     1     1     2 1   
     2     1    33 1   
     3     1    34 1   
     4     1    35 1   
     5     2     3 2   
     6     2     4 1   
     7     4     5 1   
     8     4    36 1   
     9     5     6 1   
    10     5     8 1   
    11     5    37 1   
    12     6     7 1   
    13     6    17 1   
    14     6    38 1   
    15     7    39 1   
    16     8     9 1   
    17     8    13 1   
    18     8    40 1   
    19     9    10 1   
    20    10    11 1   
    21    10    41 1   
    22    10    42 1   
    23    11    12 2   
    24    11    43 1   
    25    12    44 1   
    26    12    45 1   
    27    13    14 1   
    28    14    15 1   
    29    14    17 1   
    30    14    46 1   
    31    15    16 1   
    32    15    47 1   
    33    15    48 1   
    34    16    49 1   
    35    17    18 1   
    36    17    50 1   
    37    18    19 1   
    38    19    20 1   
    39    19    22 1   
    40    19    51 1   
    41    20    21 1   
    42    20    28 1   
    43    20    52 1   
    44    21    53 1   
    45    22    23 1   
    46    23    24 1   
    47    23    26 1   
    48    23    54 1   
    49    24    25 1   
    50    24    55 1   
    51    24    56 1   
    52    25    57 1   
    53    26    27 1   
    54    26    28 1   
    55    26    58 1   
    56    27    59 1   
    57    28    29 1   
    58    28    60 1   
    59    29    30 1   
    60    30    31 1   
    61    30    61 1   
    62    30    62 1   
    63    31    32 3   
    64    32    63 1   
@<TRIPOS>SUBSTRUCTURE
     1 2XV         1 TEMP              0 ****  ****    0 ROOT
