@<TRIPOS>MOLECULE
2XV
   63    64     1     0     0
SMALL
abcg2


@<TRIPOS>ATOM
      1 CAE          5.7230    -2.6430    -1.9100 c3         1 2XV      -0.182100
      2 CAR          4.8120    -2.1720    -0.8040 c          1 2XV       0.608100
      3 OAU          4.8860    -2.5940     0.3390 o          1 2XV      -0.577100
      4 NBA          3.8830    -1.2720    -1.2020 ns         1 2XV      -0.513900
      5 CAG          2.9710    -0.5980    -0.3150 c6         1 2XV       0.037700
      6 CAF          1.5430    -0.6830    -0.8660 c6         1 2XV       0.165300
      7 OBF          1.0890    -2.0070    -0.8980 oh         1 2XV      -0.681000
      8 CAS          3.3710     0.8610    -0.1100 c6         1 2XV       0.382300
      9 OAV          4.6010     0.9060     0.4990 os         1 2XV      -0.426000
     10 CAK          5.2500     2.1680     0.4280 c3         1 2XV       0.190800
     11 CAB          6.5790     2.0500     1.0950 c2         1 2XV      -0.211200
     12 CAA          7.7270     2.3700     0.5130 c2         1 2XV      -0.311000
     13 OAY          2.4290     1.4870     0.7220 os         1 2XV      -0.463000
     14 CAN          1.1460     1.5650     0.1410 c6         1 2XV       0.156300
     15 CAJ          0.2900     2.4500     1.0230 c3         1 2XV       0.166600
     16 OBE          0.8710     3.7300     1.0660 oh         1 2XV      -0.709000
     17 CAM          0.5860     0.1440    -0.0170 c6         1 2XV       0.148300
     18 O1          -0.6650     0.1760    -0.6760 os         1 2XV      -0.443000
     19 C1          -1.7830    -0.0560     0.1020 c6         1 2XV       0.367300
     20 C2          -3.0070     0.4360    -0.6750 c6         1 2XV       0.121300
     21 O2          -2.9580     1.8270    -0.8650 oh         1 2XV      -0.728000
     22 O5          -1.8750    -1.4230     0.3700 os         1 2XV      -0.435000
     23 C5          -2.9740    -1.7300     1.2030 c6         1 2XV       0.146300
     24 C6          -2.9030    -3.1940     1.5750 c3         1 2XV       0.171600
     25 O6          -1.7770    -3.4060     2.3900 oh         1 2XV      -0.704000
     26 C4          -4.2860    -1.3760     0.4990 c6         1 2XV       0.141300
     27 O4          -4.4740    -2.1290    -0.6750 oh         1 2XV      -0.687000
     28 C3          -4.2590     0.1050     0.1310 c6         1 2XV       0.185300
     29 O3          -5.4410     0.4100    -0.5700 os         1 2XV      -0.433000
     30 CAQ         -5.9790     1.6910    -0.3300 c3         1 2XV       0.250700
     31 CAD         -7.3840     1.6870    -0.7250 c1         1 2XV      -0.150100
     32 CAC         -8.5390     1.7020    -1.0560 c1         1 2XV      -0.222000
     33 HAE          6.5420    -3.2290    -1.5030 hc         1 2XV       0.060033
     34 HAG          5.1680    -3.2670    -2.6140 hc         1 2XV       0.060033
     35 HAF          6.1330    -1.8050    -2.4740 hc         1 2XV       0.060033
     36 HBA          3.9390    -0.9340    -2.1520 hn         1 2XV       0.302500
     37 HAI          3.0060    -1.1050     0.6520 h1         1 2XV       0.123700
     38 HAH          1.5430    -0.2440    -1.8780 h1         1 2XV       0.028700
     39 HBF          1.6520    -2.4980    -1.5060 ho         1 2XV       0.507000
     40 HAS          3.3930     1.3820    -1.0860 h2         1 2XV       0.013700
     41 HAK          5.3690     2.4790    -0.6170 h1         1 2XV       0.038700
     42 H64          4.6520     2.9350     0.9340 h1         1 2XV       0.038700
     43 HAC          6.5720     1.7090     2.1260 ha         1 2XV       0.186000
     44 HAB          8.6680     2.3050     1.0440 ha         1 2XV       0.161500
     45 HAA          7.7700     2.7150    -0.5140 ha         1 2XV       0.161500
     46 HAN          1.2100     2.0270    -0.8590 h1         1 2XV       0.050700
     47 H63         -0.7220     2.4870     0.6060 h1         1 2XV       0.034200
     48 HAJ          0.2150     2.0000     2.0240 h1         1 2XV       0.034200
     49 HBE          0.2900     4.3010     1.5760 ho         1 2XV       0.505000
     50 HAM          0.4940    -0.3170     0.9760 h1         1 2XV       0.086700
     51 H1          -1.7240     0.5020     1.0570 h2         1 2XV       0.018700
     52 H21         -3.0440    -0.0990    -1.6350 h1         1 2XV       0.089700
     53 H22         -2.2990     2.0210    -1.5400 ho         1 2XV       0.521000
     54 H5          -2.9260    -1.1350     2.1300 h1         1 2XV       0.046700
     55 H62         -3.8350    -3.4530     2.0960 h1         1 2XV       0.028700
     56 H61         -2.8640    -3.8020     0.6620 h1         1 2XV       0.028700
     57 H66         -1.7400    -4.3420     2.6070 ho         1 2XV       0.507000
     58 H41         -5.1080    -1.5310     1.2110 h1         1 2XV       0.046700
     59 H42         -4.9600    -2.9280    -0.4590 ho         1 2XV       0.503000
     60 H3          -4.2190     0.6720     1.0740 h1         1 2XV       0.042700
     61 HAQ         -5.9120     1.9590     0.7320 h1         1 2XV       0.048200
     62 H65         -5.4520     2.4710    -0.8870 h1         1 2XV       0.048200
     63 HAD         -9.5630     1.7120    -1.3490 ha         1 2XV       0.255000
@<TRIPOS>BOND
     1     1     2 1   
     2     1    33 1   
     3     1    34 1   
     4     1    35 1   
     5     2     3 2   
     6     2     4 1   
     7     4     5 1   
     8     4    36 1   
     9     5     6 1   
    10     5     8 1   
    11     5    37 1   
    12     6     7 1   
    13     6    17 1   
    14     6    38 1   
    15     7    39 1   
    16     8     9 1   
    17     8    13 1   
    18     8    40 1   
    19     9    10 1   
    20    10    11 1   
    21    10    41 1   
    22    10    42 1   
    23    11    12 2   
    24    11    43 1   
    25    12    44 1   
    26    12    45 1   
    27    13    14 1   
    28    14    15 1   
    29    14    17 1   
    30    14    46 1   
    31    15    16 1   
    32    15    47 1   
    33    15    48 1   
    34    16    49 1   
    35    17    18 1   
    36    17    50 1   
    37    18    19 1   
    38    19    20 1   
    39    19    22 1   
    40    19    51 1   
    41    20    21 1   
    42    20    28 1   
    43    20    52 1   
    44    21    53 1   
    45    22    23 1   
    46    23    24 1   
    47    23    26 1   
    48    23    54 1   
    49    24    25 1   
    50    24    55 1   
    51    24    56 1   
    52    25    57 1   
    53    26    27 1   
    54    26    28 1   
    55    26    58 1   
    56    27    59 1   
    57    28    29 1   
    58    28    60 1   
    59    29    30 1   
    60    30    31 1   
    61    30    61 1   
    62    30    62 1   
    63    31    32 3   
    64    32    63 1   
@<TRIPOS>SUBSTRUCTURE
     1 2XV         1 TEMP              0 ****  ****    0 ROOT
