@<TRIPOS>MOLECULE
2XW
   75    78     1     0     0
SMALL
bcc


@<TRIPOS>ATOM
      1 C8           7.8410    -2.5020    -2.4570 c3         1 2XW      -0.182100
      2 C7           7.0800    -2.0410    -1.2380 c          1 2XW       0.675100
      3 O7           7.3700    -2.3880    -0.1050 o          1 2XW      -0.576100
      4 N2           6.0350    -1.2270    -1.5190 ns         1 2XW      -0.579900
      5 C2           5.2490    -0.5470    -0.5230 c6         1 2XW       0.037700
      6 C3           3.7560    -0.7240    -0.8220 c6         1 2XW       0.140100
      7 O3           3.3770    -2.0680    -0.7580 oh         1 2XW      -0.558800
      8 C1           5.5840     0.9410    -0.4610 c6         1 2XW       0.334900
      9 O1           6.9030     1.0900    -0.1120 os         1 2XW      -0.381600
     10 CAP          7.4320     2.3920    -0.3250 c3         1 2XW       0.168600
     11 CAQ          8.8880     2.3630    -0.0040 c2         1 2XW      -0.162200
     12 CAR          9.8360     2.7790    -0.8340 c2         1 2XW      -0.212000
     13 O5           4.7810     1.5480     0.5180 os         1 2XW      -0.417600
     14 C5           3.4070     1.5300     0.2030 c6         1 2XW       0.135100
     15 C6           2.6890     2.3650     1.2430 c3         1 2XW       0.143400
     16 O6           3.1770     3.6830     1.1710 oh         1 2XW      -0.587800
     17 C4           2.9100     0.0760     0.1610 c6         1 2XW       0.126100
     18 O4           1.5680     0.0460    -0.2870 os         1 2XW      -0.398600
     19 CAT          0.5990    -0.2820     0.6420 c6         1 2XW       0.321900
     20 CBA         -0.7460     0.2240     0.1130 c6         1 2XW       0.100100
     21 OAY         -0.7620     1.6260     0.0210 oh         1 2XW      -0.600800
     22 OAS          0.5800    -1.6690     0.8090 os         1 2XW      -0.389600
     23 CAV         -0.3630    -2.0760     1.7800 c6         1 2XW       0.127100
     24 CAZ         -0.2040    -3.5610     2.0160 c3         1 2XW       0.148400
     25 OBC          1.0290    -3.7940     2.6530 oh         1 2XW      -0.583800
     26 CAU         -1.7780    -1.7120     1.3270 c6         1 2XW       0.113100
     27 OAW         -2.1270    -2.3880     0.1410 oh         1 2XW      -0.568800
     28 CBB         -1.8430    -0.2070     1.0790 c6         1 2XW       0.161100
     29 OAX         -3.1200     0.1170     0.5890 os         1 2XW      -0.401600
     30 CBD         -3.7050     1.2800     1.1120 c3         1 2XW       0.126100
     31 CBE         -5.1390     1.2630     0.7140 cc         1 2XW       0.255600
     32 CBI         -5.8340     0.2940     0.0480 cd         1 2XW      -0.182600
     33 NBF         -5.9880     2.2840     0.9780 nc         1 2XW      -0.359000
     34 NBG         -7.1540     2.0030     0.5200 nd         1 2XW      -0.148800
     35 NBH         -7.0820     0.8070    -0.0460 na         1 2XW       0.068600
     36 CBP         -8.1990     0.2240    -0.6470 cc         1 2XW       0.666500
     37 NBO         -9.3810     0.8480    -0.7240 nc         1 2XW      -0.723000
     38 NBN         -8.1250    -0.9670    -1.1650 nd         1 2XW      -0.554800
     39 NAC         -9.3840    -1.1320    -1.6260 na         1 2XW      -0.187400
     40 CAB        -10.1230    -0.0470    -1.3590 cd         1 2XW       0.682400
     41 NAD        -11.4060     0.1210    -1.7420 nv         1 2XW      -0.930500
     42 H83          8.6530    -3.1640    -2.1700 hc         1 2XW       0.060700
     43 H82          7.1830    -3.0300    -3.1470 hc         1 2XW       0.060700
     44 H81          8.2580    -1.6500    -2.9960 hc         1 2XW       0.060700
     45 H22          5.9170    -0.9350    -2.4780 hn         1 2XW       0.302500
     46 H21          5.4780    -0.9900     0.4490 h1         1 2XW       0.122700
     47 H31          3.5650    -0.3080    -1.8260 h1         1 2XW       0.029700
     48 H32          3.8900    -2.5500    -1.4160 ho         1 2XW       0.409000
     49 H1           5.3780     1.4110    -1.4430 h2         1 2XW       0.013700
     50 H63          7.2710     2.7060    -1.3630 h1         1 2XW       0.039200
     51 HAP          6.9260     3.1200     0.3190 h1         1 2XW       0.039200
     52 HAQ          9.1550     2.0060     0.9870 ha         1 2XW       0.136000
     53 H64          9.6030     3.1420    -1.8280 ha         1 2XW       0.111500
     54 HAR         10.8790     2.7790    -0.5480 ha         1 2XW       0.111500
     55 H5           3.2370     1.9780    -0.7900 h1         1 2XW       0.051700
     56 H62          1.6130     2.3270     1.0460 h1         1 2XW       0.034200
     57 H61          2.8540     1.9220     2.2360 h1         1 2XW       0.034200
     58 H67          2.6830     4.2160     1.8010 ho         1 2XW       0.407000
     59 H4           3.0040    -0.3670     1.1610 h1         1 2XW       0.083700
     60 HAT          0.8060     0.2010     1.6180 h2         1 2XW       0.020700
     61 HBA         -0.9270    -0.2420    -0.8660 h1         1 2XW       0.086700
     62 HAY         -0.2200     1.8870    -0.7300 ho         1 2XW       0.421000
     63 HAV         -0.1720    -1.5540     2.7330 h1         1 2XW       0.048700
     64 HAZ         -1.0480    -3.8950     2.6360 h1         1 2XW       0.029200
     65 H65         -0.2750    -4.0950     1.0610 h1         1 2XW       0.029200
     66 HBC          1.1800    -4.7430     2.6700 ho         1 2XW       0.408000
     67 HAU         -2.4730    -1.9520     2.1410 h1         1 2XW       0.045700
     68 HAW         -2.6630    -3.1510     0.3650 ho         1 2XW       0.403000
     69 HBB         -1.6640     0.2890     2.0450 h1         1 2XW       0.046700
     70 H66         -3.6240     1.3110     2.2070 h1         1 2XW       0.050200
     71 HBD         -3.2270     2.1910     0.7350 h1         1 2XW       0.050200
     72 HBI         -5.5620    -0.6670    -0.3490 h4         1 2XW       0.209000
     73 HAC         -9.6480    -1.9780    -2.1060 hn         1 2XW       0.331700
     74 HAD        -11.9510    -0.7060    -1.9250 hn         1 2XW       0.430800
     75 H84        -11.9130     0.8420    -1.2560 hn         1 2XW       0.430800
@<TRIPOS>BOND
     1     1     2 1   
     2     1    42 1   
     3     1    43 1   
     4     1    44 1   
     5     2     3 2   
     6     2     4 1   
     7     4     5 1   
     8     4    45 1   
     9     5     6 1   
    10     5     8 1   
    11     5    46 1   
    12     6     7 1   
    13     6    17 1   
    14     6    47 1   
    15     7    48 1   
    16     8     9 1   
    17     8    13 1   
    18     8    49 1   
    19     9    10 1   
    20    10    11 1   
    21    10    50 1   
    22    10    51 1   
    23    11    12 2   
    24    11    52 1   
    25    12    53 1   
    26    12    54 1   
    27    13    14 1   
    28    14    15 1   
    29    14    17 1   
    30    14    55 1   
    31    15    16 1   
    32    15    56 1   
    33    15    57 1   
    34    16    58 1   
    35    17    18 1   
    36    17    59 1   
    37    18    19 1   
    38    19    20 1   
    39    19    22 1   
    40    19    60 1   
    41    20    21 1   
    42    20    28 1   
    43    20    61 1   
    44    21    62 1   
    45    22    23 1   
    46    23    24 1   
    47    23    26 1   
    48    23    63 1   
    49    24    25 1   
    50    24    64 1   
    51    24    65 1   
    52    25    66 1   
    53    26    27 1   
    54    26    28 1   
    55    26    67 1   
    56    27    68 1   
    57    28    29 1   
    58    28    69 1   
    59    29    30 1   
    60    30    31 1   
    61    30    70 1   
    62    30    71 1   
    63    31    32 2   
    64    31    33 1   
    65    32    35 1   
    66    32    72 1   
    67    33    34 2   
    68    34    35 1   
    69    35    36 1   
    70    36    37 1   
    71    36    38 2   
    72    37    40 2   
    73    38    39 1   
    74    39    40 1   
    75    39    73 1   
    76    40    41 1   
    77    41    74 1   
    78    41    75 1   
@<TRIPOS>SUBSTRUCTURE
     1 2XW         1 TEMP              0 ****  ****    0 ROOT
