@<TRIPOS>MOLECULE
2XW
   75    78     1     0     0
SMALL
No Charge or Current Charge


@<TRIPOS>ATOM
      1 C8           7.9580    -2.2290    -3.0990 c3         1 2XW      -0.182100
      2 C7           7.2030    -1.9330    -1.8110 c          1 2XW       0.608100
      3 O7           7.5430    -2.3890    -0.7300 o          1 2XW      -0.576100
      4 N2           6.0970    -1.1270    -1.9640 ns         1 2XW      -0.512900
      5 C2           5.2760    -0.5730    -0.8510 c6         1 2XW       0.037700
      6 C3           3.7660    -0.5500    -1.2240 c6         1 2XW       0.163300
      7 O3           3.3220    -1.8770    -1.5670 oh         1 2XW      -0.681000
      8 C1           5.7110     0.8720    -0.4610 c6         1 2XW       0.381300
      9 O1           7.0850     0.8960    -0.0450 os         1 2XW      -0.428000
     10 CAP          7.6470     2.1920     0.1990 c3         1 2XW       0.191800
     11 CAQ          9.1080     1.9930     0.5380 c2         1 2XW      -0.212200
     12 CAR         10.1220     1.9920    -0.3440 c2         1 2XW      -0.312000
     13 O5           4.8940     1.3420     0.6250 os         1 2XW      -0.464000
     14 C5           3.4890     1.4780     0.2920 c6         1 2XW       0.158300
     15 C6           2.7770     2.1910     1.4900 c3         1 2XW       0.166600
     16 O6           3.4150     3.4240     1.8830 oh         1 2XW      -0.710000
     17 C4           2.9060     0.0710    -0.0730 c6         1 2XW       0.149300
     18 O4           1.5040     0.1180    -0.4630 os         1 2XW      -0.445000
     19 CAT          0.5360    -0.0870     0.5890 c6         1 2XW       0.368300
     20 CBA         -0.9020     0.2260     0.0600 c6         1 2XW       0.123300
     21 OAY         -0.9720     1.5800    -0.4600 oh         1 2XW      -0.723000
     22 OAS          0.6050    -1.4480     1.0410 os         1 2XW      -0.436000
     23 CAV         -0.2580    -1.7060     2.1750 c6         1 2XW       0.150300
     24 CAZ          0.0330    -3.1420     2.7200 c3         1 2XW       0.171600
     25 OBC          1.3990    -3.3180     3.1480 oh         1 2XW      -0.706000
     26 CAU         -1.7560    -1.4960     1.7800 c6         1 2XW       0.136300
     27 OAW         -2.2240    -2.4780     0.8310 oh         1 2XW      -0.691000
     28 CBB         -1.9590    -0.0620     1.1930 c6         1 2XW       0.184300
     29 OAX         -3.3400     0.0450     0.7400 os         1 2XW      -0.448000
     30 CBD         -3.8550     1.3530     0.4050 c3         1 2XW       0.149300
     31 CBE         -5.3590     1.2720     0.2970 cc         1 2XW       0.190300
     32 CBI         -6.0950     0.4080    -0.4510 cd         1 2XW      -0.150000
     33 NBF         -6.1750     2.1240     0.9850 nc         1 2XW      -0.359000
     34 NBG         -7.4180     1.8270     0.7010 nd         1 2XW      -0.148800
     35 NBH         -7.4090     0.7690    -0.1850 na         1 2XW       0.119300
     36 CBP         -8.5300     0.1290    -0.7530 cc         1 2XW       0.666500
     37 NBO         -9.8360     0.4610    -0.5110 nc         1 2XW      -0.723000
     38 NBN         -8.2890    -0.8790    -1.5920 nd         1 2XW      -0.554800
     39 NAC         -9.5850    -1.2250    -1.9190 na         1 2XW      -0.237700
     40 CAB        -10.4490    -0.4000    -1.2510 cd         1 2XW       0.682400
     41 NAD        -11.7760    -0.4550    -1.3340 nv         1 2XW      -1.040900
     42 H83          8.8210    -2.8870    -2.9410 hc         1 2XW       0.060700
     43 H82          7.2610    -2.6450    -3.8350 hc         1 2XW       0.060700
     44 H81          8.2520    -1.2820    -3.5650 hc         1 2XW       0.060700
     45 H22          5.9270    -0.7840    -2.9040 hn         1 2XW       0.302500
     46 H21          5.4050    -1.2060     0.0390 h1         1 2XW       0.122700
     47 H31          3.6530     0.0990    -2.1060 h1         1 2XW       0.029700
     48 H32          4.0320    -2.2740    -2.1190 ho         1 2XW       0.508000
     49 H1           5.5870     1.5370    -1.3290 h2         1 2XW       0.013700
     50 H63          7.5520     2.8300    -0.6900 h1         1 2XW       0.039200
     51 HAP          7.1350     2.6900     1.0330 h1         1 2XW       0.039200
     52 HAQ          9.2950     1.8390     1.6030 ha         1 2XW       0.186000
     53 H64          9.9540     2.1390    -1.4120 ha         1 2XW       0.161500
     54 HAR         11.1550     1.8400    -0.0260 ha         1 2XW       0.161500
     55 H5           3.4020     2.1380    -0.5840 h1         1 2XW       0.051700
     56 H62          1.7400     2.4010     1.1940 h1         1 2XW       0.034200
     57 H61          2.7480     1.4930     2.3380 h1         1 2XW       0.034200
     58 H67          2.9460     3.7490     2.6870 ho         1 2XW       0.506000
     59 H4           3.0100    -0.5840     0.8040 h1         1 2XW       0.083700
     60 HAT          0.7560     0.5800     1.4330 h2         1 2XW       0.020700
     61 HBA         -1.0980    -0.4870    -0.7550 h1         1 2XW       0.086700
     62 HAY         -0.2330     1.6640    -1.1080 ho         1 2XW       0.520000
     63 HAV         -0.0040    -0.9950     2.9750 h1         1 2XW       0.048700
     64 HAZ         -0.6480    -3.3330     3.5600 h1         1 2XW       0.029200
     65 H65         -0.2080    -3.8690     1.9320 h1         1 2XW       0.029200
     66 HBC          1.5040    -4.2690     3.3860 ho         1 2XW       0.507000
     67 HAU         -2.3580    -1.5670     2.6980 h1         1 2XW       0.045700
     68 HAW         -3.0500    -2.0940     0.4520 ho         1 2XW       0.502000
     69 HBB         -1.8050     0.6610     2.0070 h1         1 2XW       0.046700
     70 H66         -3.5850     2.0880     1.1750 h1         1 2XW       0.050200
     71 HBD         -3.4620     1.6990    -0.5580 h1         1 2XW       0.050200
     72 HBI         -5.7940    -0.3940    -1.1140 h4         1 2XW       0.191000
     73 HAC         -9.8320    -1.9710    -2.5610 hn         1 2XW       0.382000
     74 HAD        -12.1910    -1.3300    -1.6350 hn         1 2XW       0.486000
     75 H84        -12.2830     0.0580    -0.6220 hn         1 2XW       0.486000
@<TRIPOS>BOND
     1     1     2 1   
     2     1    42 1   
     3     1    43 1   
     4     1    44 1   
     5     2     3 2   
     6     2     4 1   
     7     4     5 1   
     8     4    45 1   
     9     5     6 1   
    10     5     8 1   
    11     5    46 1   
    12     6     7 1   
    13     6    17 1   
    14     6    47 1   
    15     7    48 1   
    16     8     9 1   
    17     8    13 1   
    18     8    49 1   
    19     9    10 1   
    20    10    11 1   
    21    10    50 1   
    22    10    51 1   
    23    11    12 2   
    24    11    52 1   
    25    12    53 1   
    26    12    54 1   
    27    13    14 1   
    28    14    15 1   
    29    14    17 1   
    30    14    55 1   
    31    15    16 1   
    32    15    56 1   
    33    15    57 1   
    34    16    58 1   
    35    17    18 1   
    36    17    59 1   
    37    18    19 1   
    38    19    20 1   
    39    19    22 1   
    40    19    60 1   
    41    20    21 1   
    42    20    28 1   
    43    20    61 1   
    44    21    62 1   
    45    22    23 1   
    46    23    24 1   
    47    23    26 1   
    48    23    63 1   
    49    24    25 1   
    50    24    64 1   
    51    24    65 1   
    52    25    66 1   
    53    26    27 1   
    54    26    28 1   
    55    26    67 1   
    56    27    68 1   
    57    28    29 1   
    58    28    69 1   
    59    29    30 1   
    60    30    31 1   
    61    30    70 1   
    62    30    71 1   
    63    31    32 2   
    64    31    33 1   
    65    32    35 1   
    66    32    72 1   
    67    33    34 2   
    68    34    35 1   
    69    35    36 1   
    70    36    37 1   
    71    36    38 2   
    72    37    40 2   
    73    38    39 1   
    74    39    40 1   
    75    39    73 1   
    76    40    41 1   
    77    41    74 1   
    78    41    75 1   
@<TRIPOS>SUBSTRUCTURE
     1 2XW         1 TEMP              0 ****  ****    0 ROOT
