@<TRIPOS>MOLECULE
2XX
   20    20     1     0     0
SMALL
abcg2


@<TRIPOS>ATOM
      1 OAC        -29.9630    27.6520    -3.7810 o          1 2XX      -0.527100
      2 CAH        -30.8990    27.0150    -3.3000 c          1 2XX       0.533300
      3 CAI        -30.8280    25.7620    -2.6100 ce         1 2XX      -0.145100
      4 OAD        -29.6830    25.0620    -2.3880 oh         1 2XX      -0.512100
      5 CAG        -32.0790    25.4030    -2.2240 c2         1 2XX       0.113900
      6 CAB        -32.5440    24.2130    -1.4860 c3         1 2XX      -0.040900
      7 OAF        -33.0230    26.3020    -2.5920 os         1 2XX      -0.328100
      8 CAJ        -32.3730    27.3900    -3.3070 c5         1 2XX       0.051300
      9 CAE        -33.0100    27.5280    -4.6850 c3         1 2XX      -0.068400
     10 CAA        -32.5620    28.7870    -5.4240 c3         1 2XX      -0.092100
     11 H1         -28.9510    25.5670    -2.7760 ho         1 2XX       0.475000
     12 H2         -33.0430    24.5150    -0.5610 hc         1 2XX       0.065367
     13 H3         -33.2670    23.6550    -2.0860 hc         1 2XX       0.065367
     14 H4         -31.7050    23.5640    -1.2420 hc         1 2XX       0.065367
     15 H5         -32.5290    28.2950    -2.7140 h1         1 2XX       0.097700
     16 H6         -34.0920    27.5490    -4.5380 hc         1 2XX       0.056700
     17 H7         -32.7790    26.6340    -5.2690 hc         1 2XX       0.056700
     18 H8         -33.0850    28.8660    -6.3780 hc         1 2XX       0.044033
     19 H9         -32.7880    29.6820    -4.8400 hc         1 2XX       0.044033
     20 H10        -31.4910    28.7740    -5.6220 hc         1 2XX       0.044033
@<TRIPOS>BOND
     1     1     2 2   
     2     2     3 1   
     3     2     8 1   
     4     3     4 1   
     5     3     5 2   
     6     4    11 1   
     7     5     6 1   
     8     5     7 1   
     9     6    12 1   
    10     6    13 1   
    11     6    14 1   
    12     7     8 1   
    13     8     9 1   
    14     8    15 1   
    15     9    10 1   
    16     9    16 1   
    17     9    17 1   
    18    10    18 1   
    19    10    19 1   
    20    10    20 1   
@<TRIPOS>SUBSTRUCTURE
     1 2XX         1 TEMP              0 ****  ****    0 ROOT
