@<TRIPOS>MOLECULE
2XX
   20    20     1     0     0
SMALL
No Charge or Current Charge


@<TRIPOS>ATOM
      1 OAC        -29.9090    27.6500    -3.7720 o          1 2XX      -0.527100
      2 CAH        -30.8680    27.0440    -3.3030 c          1 2XX       0.533300
      3 CAI        -30.8390    25.7510    -2.5890 ce         1 2XX      -0.145100
      4 OAD        -29.6630    25.0730    -2.3790 oh         1 2XX      -0.512100
      5 CAG        -32.0760    25.4090    -2.2210 c2         1 2XX       0.113900
      6 CAB        -32.5480    24.1820    -1.4740 c3         1 2XX      -0.040900
      7 OAF        -33.0680    26.2850    -2.5690 os         1 2XX      -0.328100
      8 CAJ        -32.3890    27.3840    -3.2700 c5         1 2XX       0.051300
      9 CAE        -33.0230    27.5470    -4.6760 c3         1 2XX      -0.068400
     10 CAA        -32.5610    28.7970    -5.4540 c3         1 2XX      -0.092100
     11 H1         -28.9380    25.6080    -2.7800 ho         1 2XX       0.475000
     12 H2         -33.0430    24.4610    -0.5370 hc         1 2XX       0.065367
     13 H3         -33.2620    23.6090    -2.0760 hc         1 2XX       0.065367
     14 H4         -31.7110    23.5190    -1.2250 hc         1 2XX       0.065367
     15 H5         -32.5200    28.3050    -2.6860 h1         1 2XX       0.097700
     16 H6         -34.1140    27.6000    -4.5710 hc         1 2XX       0.056700
     17 H7         -32.8150    26.6560    -5.2810 hc         1 2XX       0.056700
     18 H8         -33.1040    28.8760    -6.4040 hc         1 2XX       0.044033
     19 H9         -32.7530    29.7090    -4.8750 hc         1 2XX       0.044033
     20 H10        -31.4900    28.7500    -5.6820 hc         1 2XX       0.044033
@<TRIPOS>BOND
     1     1     2 2   
     2     2     3 1   
     3     2     8 1   
     4     3     4 1   
     5     3     5 2   
     6     4    11 1   
     7     5     6 1   
     8     5     7 1   
     9     6    12 1   
    10     6    13 1   
    11     6    14 1   
    12     7     8 1   
    13     8     9 1   
    14     8    15 1   
    15     9    10 1   
    16     9    16 1   
    17     9    17 1   
    18    10    18 1   
    19    10    19 1   
    20    10    20 1   
@<TRIPOS>SUBSTRUCTURE
     1 2XX         1 TEMP              0 ****  ****    0 ROOT
