@<TRIPOS>MOLECULE
2XY
   32    33     1     0     0
SMALL
No Charge or Current Charge


@<TRIPOS>ATOM
      1 C4          15.8590   -40.7370    11.2000 c6         1 2XY       0.105800
      2 C1          15.4700   -43.1890    11.4110 c6         1 2XY       0.105800
      3 C2          16.8490   -43.4270    10.7320 c6         1 2XY       0.154100
      4 O2          10.0270   -40.1070    12.8810 o          1 2XY      -0.422000
      5 C3          17.2250   -41.0500    10.5270 c6         1 2XY       0.154100
      6 O3          11.6570   -41.4300    13.4600 o          1 2XY      -0.422000
      7 C5          12.4360   -41.5640    10.6630 ca         1 2XY       0.460000
      8 O1          17.7410   -42.3180    11.0010 os         1 2XY      -0.441000
      9 N1          14.8980   -41.8660    11.0200 n3         1 2XY      -0.439400
     10 N2          13.5730   -41.6150    11.4930 nu         1 2XY      -0.733000
     11 C6          12.5660   -41.8470     9.2910 ca         1 2XY      -0.202000
     12 C7          11.4630   -41.7980     8.4300 ca         1 2XY       0.019000
     13 C8          10.1920   -41.4620     8.9320 ca         1 2XY      -0.278300
     14 C9           8.9730   -41.3910     8.0070 c3         1 2XY       0.369300
     15 F2           7.8580   -41.8720     8.6020 f          1 2XY      -0.112667
     16 F3           9.1400   -42.1020     6.8680 f          1 2XY      -0.112667
     17 F1           8.7100   -40.1170     7.6420 f          1 2XY      -0.112667
     18 C10         10.0530   -41.1640    10.3010 ca         1 2XY       0.053000
     19 C11         11.1650   -41.2180    11.1730 ca         1 2XY      -0.308200
     20 N3          10.9550   -40.8760    12.6040 no         1 2XY       0.711200
     21 H4          16.0260   -40.5440    12.2690 h1         1 2XY       0.059200
     22 H4A         15.4510   -39.8150    10.7620 h1         1 2XY       0.059200
     23 H1          14.7880   -44.0020    11.1230 h1         1 2XY       0.059200
     24 H1A         15.5990   -43.2430    12.5020 h1         1 2XY       0.059200
     25 H2          17.2990   -44.3540    11.1130 h1         1 2XY       0.059450
     26 H2A         16.7180   -43.5320     9.6450 h1         1 2XY       0.059450
     27 H3          17.1040   -41.0930     9.4350 h1         1 2XY       0.059450
     28 H3A         17.9480   -40.2560    10.7600 h1         1 2XY       0.059450
     29 HN2         13.3740   -41.5290    12.5000 hn         1 2XY       0.534000
     30 H6          13.5360   -42.1080     8.8810 ha         1 2XY       0.149000
     31 H7          11.6060   -42.0180     7.3730 ha         1 2XY       0.133000
     32 H10          9.0700   -40.8910    10.6870 ha         1 2XY       0.164000
@<TRIPOS>BOND
     1     1     5 1   
     2     1     9 1   
     3     1    21 1   
     4     1    22 1   
     5     2     3 1   
     6     2     9 1   
     7     2    23 1   
     8     2    24 1   
     9     3     8 1   
    10     3    25 1   
    11     3    26 1   
    12     4    20 1   
    13     5     8 1   
    14     5    27 1   
    15     5    28 1   
    16     6    20 1   
    17     7    10 1   
    18     7    11 ar  
    19     7    19 ar  
    20     9    10 1   
    21    10    29 1   
    22    11    12 ar  
    23    11    30 1   
    24    12    13 ar  
    25    12    31 1   
    26    13    14 1   
    27    13    18 ar  
    28    14    15 1   
    29    14    16 1   
    30    14    17 1   
    31    18    19 ar  
    32    18    32 1   
    33    19    20 1   
@<TRIPOS>SUBSTRUCTURE
     1 2XY         1 TEMP              0 ****  ****    0 ROOT
