@<TRIPOS>MOLECULE
2XY
   32    33     1     0     0
SMALL
abcg2


@<TRIPOS>ATOM
      1 C4          15.8270   -40.7600    11.2070 c6         1 2XY       0.105800
      2 C1          15.3440   -43.1170    11.3390 c6         1 2XY       0.105800
      3 C2          16.6820   -43.3850    10.6750 c6         1 2XY       0.154100
      4 O2           9.7990   -40.8650    12.9410 o          1 2XY      -0.422000
      5 C3          17.1500   -41.1140    10.5510 c6         1 2XY       0.154100
      6 O3          11.8770   -41.0330    13.3680 o          1 2XY      -0.422000
      7 C5          12.5250   -41.4900    10.7030 ca         1 2XY       0.460000
      8 O1          17.6180   -42.3740    10.9750 os         1 2XY      -0.441000
      9 N1          14.8600   -41.8090    10.9150 n3         1 2XY      -0.439400
     10 N2          13.6280   -41.5220    11.4660 nu         1 2XY      -0.733000
     11 C6          12.6370   -41.6960     9.3040 ca         1 2XY      -0.202000
     12 C7          11.5480   -41.6750     8.4820 ca         1 2XY       0.019000
     13 C8          10.2590   -41.4490     8.9910 ca         1 2XY      -0.278300
     14 C9           9.0980   -41.4370     8.0580 c3         1 2XY       0.369300
     15 F2           7.9360   -41.2220     8.6810 f          1 2XY      -0.112667
     16 F3           8.9790   -42.5990     7.3960 f          1 2XY      -0.112667
     17 F1           9.2230   -40.4860     7.1190 f          1 2XY      -0.112667
     18 C10         10.1070   -41.2440    10.3370 ca         1 2XY       0.053000
     19 C11         11.2110   -41.2610    11.1940 ca         1 2XY      -0.308200
     20 N3          10.9440   -41.0400    12.5840 no         1 2XY       0.711200
     21 H4          15.9700   -40.6310    12.2900 h1         1 2XY       0.059200
     22 H4A         15.4650   -39.8150    10.8000 h1         1 2XY       0.059200
     23 H1          14.6280   -43.8800    11.0300 h1         1 2XY       0.059200
     24 H1A         15.4500   -43.1740    12.4330 h1         1 2XY       0.059200
     25 H2          17.0890   -44.3300    11.0350 h1         1 2XY       0.059450
     26 H2A         16.5390   -43.4700     9.5890 h1         1 2XY       0.059450
     27 H3          17.0310   -41.0930     9.4590 h1         1 2XY       0.059450
     28 H3A         17.9040   -40.3740    10.8210 h1         1 2XY       0.059450
     29 HN2         13.5470   -41.4160    12.4680 hn         1 2XY       0.534000
     30 H6          13.6200   -41.8730     8.8940 ha         1 2XY       0.149000
     31 H7          11.7020   -41.8370     7.4220 ha         1 2XY       0.133000
     32 H10          9.1300   -41.0650    10.7600 ha         1 2XY       0.164000
@<TRIPOS>BOND
     1     1     5 1   
     2     1     9 1   
     3     1    21 1   
     4     1    22 1   
     5     2     3 1   
     6     2     9 1   
     7     2    23 1   
     8     2    24 1   
     9     3     8 1   
    10     3    25 1   
    11     3    26 1   
    12     4    20 1   
    13     5     8 1   
    14     5    27 1   
    15     5    28 1   
    16     6    20 1   
    17     7    10 1   
    18     7    11 ar  
    19     7    19 ar  
    20     9    10 1   
    21    10    29 1   
    22    11    12 ar  
    23    11    30 1   
    24    12    13 ar  
    25    12    31 1   
    26    13    14 1   
    27    13    18 ar  
    28    14    15 1   
    29    14    16 1   
    30    14    17 1   
    31    18    19 ar  
    32    18    32 1   
    33    19    20 1   
@<TRIPOS>SUBSTRUCTURE
     1 2XY         1 TEMP              0 ****  ****    0 ROOT
