@<TRIPOS>MOLECULE
2XZ
   55    57     1     0     0
SMALL
abcg2


@<TRIPOS>ATOM
      1 OAE          5.3200    -4.3100     1.6170 oh         1 2XZ      -0.646000
      2 CAK          4.3990    -4.3730     0.5550 c3         1 2XZ       0.163600
      3 CAL          3.7080    -3.0420     0.4120 c3         1 2XZ       0.157600
      4 OAS          4.6680    -2.0730     0.0310 os         1 2XZ      -0.317100
      5 CBA          4.2690    -0.7990    -0.1190 ca         1 2XZ       0.111100
      6 CAI          2.9680    -0.3570     0.0070 ca         1 2XZ      -0.134000
      7 CAZ          5.2950     0.1220    -0.4320 ca         1 2XZ       0.128100
      8 OAR          6.5250    -0.3980    -0.5400 os         1 2XZ      -0.314100
      9 CAB          7.5960     0.4700    -0.8600 c3         1 2XZ       0.144900
     10 CAG          4.9750     1.4600    -0.5990 ca         1 2XZ      -0.180000
     11 CAF          3.6610     1.8960    -0.4650 ca         1 2XZ      -0.092000
     12 CAX          2.6490     0.9990    -0.1650 ca         1 2XZ      -0.136500
     13 CBD          1.2580     1.4190    -0.0250 cc         1 2XZ       0.508900
     14 NAQ          0.2760     0.6160     0.2390 nd         1 2XZ      -0.640000
     15 SAU          0.7620     3.0700    -0.2100 ss         1 2XZ      -0.037400
     16 CBC         -0.8720     2.6150     0.0870 cc         1 2XZ      -0.206300
     17 CAM         -1.9770     3.6170     0.1220 c3         1 2XZ      -0.007100
     18 CAJ         -2.1220     4.2900     1.4900 c3         1 2XZ      -0.074400
     19 CAA         -3.2320     5.3300     1.5020 c3         1 2XZ      -0.090100
     20 CBB         -0.9180     1.2720     0.3160 cd         1 2XZ       0.287300
     21 CAN         -2.1600     0.4970     0.6000 c3         1 2XZ       0.025300
     22 SAT         -2.7630    -0.1750    -0.9820 ss         1 2XZ      -0.313300
     23 C2          -4.1930    -1.0830    -0.5000 ca         1 2XZ       0.312300
     24 N3          -4.7810    -1.6860    -1.5160 nb         1 2XZ      -0.295000
     25 N1          -4.5420    -1.0810     0.7670 nb         1 2XZ      -0.295000
     26 C6          -5.6460    -1.7900     1.0700 ca         1 2XZ       0.412900
     27 NAC         -5.9930    -1.8280     2.3730 nv         1 2XZ      -1.069900
     28 C5          -6.3660    -2.4700     0.0920 ca         1 2XZ      -0.388000
     29 C4          -5.8880    -2.3870    -1.2170 ca         1 2XZ       0.412900
     30 NAD         -6.5250    -2.9760    -2.2450 nv         1 2XZ      -1.069900
     31 H1           5.7710    -5.1570     1.6720 ho         1 2XZ       0.441000
     32 H2           4.8830    -4.6340    -0.3950 h1         1 2XZ       0.028200
     33 H3           3.6160    -5.1220     0.7290 h1         1 2XZ       0.028200
     34 H4           2.9240    -3.1360    -0.3470 h1         1 2XZ       0.045700
     35 H5           3.2270    -2.7590     1.3560 h1         1 2XZ       0.045700
     36 H6           2.1680    -1.0480     0.2370 ha         1 2XZ       0.144000
     37 H7           8.4900    -0.1470    -0.8960 h1         1 2XZ       0.040367
     38 H8           7.4570     0.9470    -1.8330 h1         1 2XZ       0.040367
     39 H9           7.7330     1.2450    -0.1010 h1         1 2XZ       0.040367
     40 H10          5.7410     2.1860    -0.8330 ha         1 2XZ       0.120000
     41 H11          3.4570     2.9500    -0.6020 ha         1 2XZ       0.115000
     42 H12         -1.8130     4.3790    -0.6450 hc         1 2XZ       0.058200
     43 H13         -2.9120     3.1190    -0.1470 hc         1 2XZ       0.058200
     44 H14         -2.3160     3.5240     2.2450 hc         1 2XZ       0.043700
     45 H15         -1.1720     4.7560     1.7630 hc         1 2XZ       0.043700
     46 H16         -3.3150     5.8060     2.4790 hc         1 2XZ       0.034033
     47 H17         -3.0430     6.1140     0.7670 hc         1 2XZ       0.034033
     48 H18         -4.1990     4.8820     1.2680 hc         1 2XZ       0.034033
     49 H19         -1.9500    -0.3240     1.2840 h1         1 2XZ       0.087200
     50 H20         -2.9330     1.1210     1.0450 h1         1 2XZ       0.087200
     51 H21         -5.5770    -1.1550     2.9930 hn         1 2XZ       0.486500
     52 H22         -6.9030    -2.1670     2.6320 hn         1 2XZ       0.486500
     53 H23         -7.2590    -3.0310     0.3340 ha         1 2XZ       0.124000
     54 H24         -7.2520    -3.6470    -2.0700 hn         1 2XZ       0.486500
     55 H25         -6.0620    -3.0290    -3.1360 hn         1 2XZ       0.486500
@<TRIPOS>BOND
     1     1     2 1   
     2     1    31 1   
     3     2     3 1   
     4     2    32 1   
     5     2    33 1   
     6     3     4 1   
     7     3    34 1   
     8     3    35 1   
     9     4     5 1   
    10     5     6 ar  
    11     5     7 ar  
    12     6    12 ar  
    13     6    36 1   
    14     7     8 1   
    15     7    10 ar  
    16     8     9 1   
    17     9    37 1   
    18     9    38 1   
    19     9    39 1   
    20    10    11 ar  
    21    10    40 1   
    22    11    12 ar  
    23    11    41 1   
    24    12    13 1   
    25    13    14 2   
    26    13    15 1   
    27    14    20 1   
    28    15    16 1   
    29    16    17 1   
    30    16    20 2   
    31    17    18 1   
    32    17    42 1   
    33    17    43 1   
    34    18    19 1   
    35    18    44 1   
    36    18    45 1   
    37    19    46 1   
    38    19    47 1   
    39    19    48 1   
    40    20    21 1   
    41    21    22 1   
    42    21    49 1   
    43    21    50 1   
    44    22    23 1   
    45    23    24 ar  
    46    23    25 ar  
    47    24    29 ar  
    48    25    26 ar  
    49    26    27 1   
    50    26    28 ar  
    51    27    51 1   
    52    27    52 1   
    53    28    29 ar  
    54    28    53 1   
    55    29    30 1   
    56    30    54 1   
    57    30    55 1   
@<TRIPOS>SUBSTRUCTURE
     1 2XZ         1 TEMP              0 ****  ****    0 ROOT
