@<TRIPOS>MOLECULE
2XZ
   55    57     1     0     0
SMALL
No Charge or Current Charge


@<TRIPOS>ATOM
      1 OAE          5.5020    -4.5200     1.6620 oh         1 2XZ      -0.646000
      2 CAK          4.6840    -4.4900     0.4780 c3         1 2XZ       0.163600
      3 CAL          3.9160    -3.1500     0.3530 c3         1 2XZ       0.157600
      4 OAS          4.8640    -2.0880     0.1140 os         1 2XZ      -0.317100
      5 CBA          4.4810    -0.7660    -0.0490 ca         1 2XZ       0.111100
      6 CAI          3.1250    -0.3690     0.0170 ca         1 2XZ      -0.134000
      7 CAZ          5.4830     0.2010    -0.2890 ca         1 2XZ       0.128100
      8 OAR          6.8050    -0.2110    -0.3510 os         1 2XZ      -0.314100
      9 CAB          7.8890     0.7040    -0.5900 c3         1 2XZ       0.144900
     10 CAG          5.1160     1.5530    -0.4580 ca         1 2XZ      -0.180000
     11 CAF          3.7670     1.9390    -0.3910 ca         1 2XZ      -0.092000
     12 CAX          2.7500     0.9870    -0.1530 ca         1 2XZ      -0.136500
     13 CBD          1.3280     1.3880    -0.0810 cc         1 2XZ       0.508900
     14 NAQ          0.3500     0.5170     0.1490 nd         1 2XZ      -0.640000
     15 SAU          0.8200     3.0490    -0.2900 ss         1 2XZ      -0.037400
     16 CBC         -0.8210     2.5240    -0.0530 cc         1 2XZ      -0.206300
     17 CAM         -1.9590     3.5110    -0.1000 c3         1 2XZ      -0.007100
     18 CAJ         -2.2500     4.1390     1.2780 c3         1 2XZ      -0.074400
     19 CAA         -3.4190     5.1430     1.2520 c3         1 2XZ      -0.090100
     20 CBB         -0.8780     1.1630     0.1620 cd         1 2XZ       0.287300
     21 CAN         -2.1320     0.3620     0.4090 c3         1 2XZ       0.025300
     22 SAT         -3.1010    -0.0150    -1.1290 ss         1 2XZ      -0.313300
     23 C2          -4.5240    -0.9320    -0.5440 ca         1 2XZ       0.312300
     24 N3          -5.3800    -1.3670    -1.4900 nb         1 2XZ      -0.295000
     25 N1          -4.6530    -1.1290     0.7850 nb         1 2XZ      -0.295000
     26 C6          -5.7280    -1.8180     1.1790 ca         1 2XZ       0.412900
     27 NAC         -5.8580    -2.0140     2.5100 nv         1 2XZ      -1.069900
     28 C5          -6.6720    -2.3100     0.2880 ca         1 2XZ      -0.388000
     29 C4          -6.4430    -2.0500    -1.0570 ca         1 2XZ       0.412900
     30 NAD         -7.3000    -2.4880    -2.0050 nv         1 2XZ      -1.069900
     31 H1           5.9880    -5.3740     1.6520 ho         1 2XZ       0.441000
     32 H2           5.3020    -4.6330    -0.4190 h1         1 2XZ       0.028200
     33 H3           3.9530    -5.3080     0.5080 h1         1 2XZ       0.028200
     34 H4           3.2090    -3.2260    -0.4830 h1         1 2XZ       0.045700
     35 H5           3.3480    -2.9700     1.2740 h1         1 2XZ       0.045700
     36 H6           2.3510    -1.1080     0.2000 ha         1 2XZ       0.144000
     37 H7           8.8440     0.1660    -0.5980 h1         1 2XZ       0.040367
     38 H8           7.7710     1.2030    -1.5600 h1         1 2XZ       0.040367
     39 H9           7.9360     1.4670     0.1980 h1         1 2XZ       0.040367
     40 H10          5.8620     2.3210    -0.6430 ha         1 2XZ       0.120000
     41 H11          3.5290     2.9910    -0.5270 ha         1 2XZ       0.115000
     42 H12         -1.7250     4.3090    -0.8160 hc         1 2XZ       0.058200
     43 H13         -2.8670     3.0230    -0.4750 hc         1 2XZ       0.058200
     44 H14         -2.4780     3.3440     1.9980 hc         1 2XZ       0.043700
     45 H15         -1.3490     4.6490     1.6410 hc         1 2XZ       0.043700
     46 H16         -3.5860     5.5610     2.2520 hc         1 2XZ       0.034033
     47 H17         -3.2050     5.9710     0.5660 hc         1 2XZ       0.034033
     48 H18         -4.3450     4.6530     0.9270 hc         1 2XZ       0.034033
     49 H19         -1.8600    -0.5840     0.8940 h1         1 2XZ       0.087200
     50 H20         -2.7720     0.9200     1.1030 h1         1 2XZ       0.087200
     51 H21         -5.2720    -1.4680     3.1360 hn         1 2XZ       0.486500
     52 H22         -6.7560    -2.3220     2.8740 hn         1 2XZ       0.486500
     53 H23         -7.5400    -2.8680     0.6240 ha         1 2XZ       0.124000
     54 H24         -7.9840    -3.1980    -1.7530 hn         1 2XZ       0.486500
     55 H25         -7.0010    -2.4640    -2.9770 hn         1 2XZ       0.486500
@<TRIPOS>BOND
     1     1     2 1   
     2     1    31 1   
     3     2     3 1   
     4     2    32 1   
     5     2    33 1   
     6     3     4 1   
     7     3    34 1   
     8     3    35 1   
     9     4     5 1   
    10     5     6 ar  
    11     5     7 ar  
    12     6    12 ar  
    13     6    36 1   
    14     7     8 1   
    15     7    10 ar  
    16     8     9 1   
    17     9    37 1   
    18     9    38 1   
    19     9    39 1   
    20    10    11 ar  
    21    10    40 1   
    22    11    12 ar  
    23    11    41 1   
    24    12    13 1   
    25    13    14 2   
    26    13    15 1   
    27    14    20 1   
    28    15    16 1   
    29    16    17 1   
    30    16    20 2   
    31    17    18 1   
    32    17    42 1   
    33    17    43 1   
    34    18    19 1   
    35    18    44 1   
    36    18    45 1   
    37    19    46 1   
    38    19    47 1   
    39    19    48 1   
    40    20    21 1   
    41    21    22 1   
    42    21    49 1   
    43    21    50 1   
    44    22    23 1   
    45    23    24 ar  
    46    23    25 ar  
    47    24    29 ar  
    48    25    26 ar  
    49    26    27 1   
    50    26    28 ar  
    51    27    51 1   
    52    27    52 1   
    53    28    29 ar  
    54    28    53 1   
    55    29    30 1   
    56    30    54 1   
    57    30    55 1   
@<TRIPOS>SUBSTRUCTURE
     1 2XZ         1 TEMP              0 ****  ****    0 ROOT
