@<TRIPOS>MOLECULE
2Y0
   58    60     1     0     0
SMALL
bcc


@<TRIPOS>ATOM
      1 CAB         -6.2610     3.4320     1.6750 c3         1 2Y0      -0.276300
      2 SBF         -6.3290     2.7640     0.0280 s6         1 2Y0       1.224900
      3 OAE         -7.7230     2.4830    -0.2830 o          1 2Y0      -0.598800
      4 OAF         -5.5590     3.6330    -0.8480 o          1 2Y0      -0.598800
      5 NAT         -5.5370     1.3220     0.0530 n7         1 2Y0      -0.815100
      6 CAM         -6.0630     0.2170     0.8460 c3         1 2Y0       0.202800
      7 CAN         -5.4870    -1.0900     0.3570 c3         1 2Y0       0.140400
      8 OAU         -4.0830    -1.0300     0.5350 os         1 2Y0      -0.334900
      9 CAZ         -3.3210    -2.0490     0.0930 ca         1 2Y0       0.139100
     10 CAK         -1.9440    -1.8590     0.1740 ca         1 2Y0      -0.121000
     11 CAH         -3.8290    -3.2430    -0.4130 ca         1 2Y0      -0.203000
     12 CAG         -2.9460    -4.2320    -0.8300 ca         1 2Y0      -0.092000
     13 CAI         -1.5770    -4.0510    -0.7530 ca         1 2Y0      -0.152000
     14 CBA         -1.0690    -2.8530    -0.2470 ca         1 2Y0      -0.093500
     15 CBE          0.3720    -2.6100    -0.1590 cc         1 2Y0       0.484900
     16 NAS          0.8980    -1.4750     0.1810 nd         1 2Y0      -0.628000
     17 SAW          1.5460    -3.8330    -0.5090 ss         1 2Y0      -0.162300
     18 CBD          2.8110    -2.7180    -0.1790 cc         1 2Y0      -0.125700
     19 CAO          4.2520    -3.0990    -0.2460 c3         1 2Y0      -0.008100
     20 CAL          4.7950    -3.5960     1.0960 c3         1 2Y0      -0.073400
     21 CAA          6.2710    -3.9530     1.0140 c3         1 2Y0      -0.090100
     22 CBC          2.2600    -1.5220     0.1830 cd         1 2Y0       0.349600
     23 CAP          3.0380    -0.3000     0.5360 c3         1 2Y0      -0.024600
     24 SAV          3.2270     0.6890    -0.9810 ss         1 2Y0      -0.263400
     25 C2           4.0880     2.1160    -0.4090 ca         1 2Y0       0.838300
     26 N3           4.3040     3.0000    -1.3650 nb         1 2Y0      -0.821500
     27 N1           4.4270     2.1780     0.8590 nb         1 2Y0      -0.821500
     28 C6           5.0800     3.2940     1.2360 ca         1 2Y0       0.742200
     29 NAC          5.4590     3.3590     2.5260 nv         1 2Y0      -0.960000
     30 C5           5.3700     4.3090     0.3270 ca         1 2Y0      -0.536600
     31 C4           4.9590     4.1120    -0.9920 ca         1 2Y0       0.742200
     32 NAD          5.2210     5.0110    -1.9610 nv         1 2Y0      -0.960000
     33 H1          -6.7820     4.3880     1.6700 h1         1 2Y0       0.101033
     34 H2          -6.7530     2.7530     2.3680 h1         1 2Y0       0.101033
     35 H3          -5.2220     3.5760     1.9610 h1         1 2Y0       0.101033
     36 H4          -4.5320     1.4460     0.1280 hn         1 2Y0       0.441800
     37 H5          -5.8620     0.3400     1.9150 h1         1 2Y0       0.060700
     38 H6          -7.1440     0.1690     0.7150 h1         1 2Y0       0.060700
     39 H7          -5.9230    -1.9100     0.9380 h1         1 2Y0       0.050200
     40 H8          -5.7390    -1.2410    -0.6970 h1         1 2Y0       0.050200
     41 H9          -1.5590    -0.9270     0.5680 ha         1 2Y0       0.167000
     42 H10         -4.8930    -3.4230    -0.4880 ha         1 2Y0       0.136000
     43 H11         -3.3420    -5.1580    -1.2250 ha         1 2Y0       0.134000
     44 H12         -0.9190    -4.8410    -1.0950 ha         1 2Y0       0.137000
     45 H13          4.4030    -3.8660    -1.0090 hc         1 2Y0       0.060200
     46 H14          4.8290    -2.2310    -0.5770 hc         1 2Y0       0.060200
     47 H15          4.6400    -2.8230     1.8530 hc         1 2Y0       0.043200
     48 H16          4.2150    -4.4650     1.4190 hc         1 2Y0       0.043200
     49 H17          6.6490    -4.2950     1.9780 hc         1 2Y0       0.034700
     50 H18          6.4470    -4.7490     0.2880 hc         1 2Y0       0.034700
     51 H19          6.8680    -3.0910     0.7110 hc         1 2Y0       0.034700
     52 H20          2.5080     0.2890     1.2830 h1         1 2Y0       0.087200
     53 H21          4.0210    -0.5480     0.9330 h1         1 2Y0       0.087200
     54 H22          5.0760     2.6940     3.1750 hn         1 2Y0       0.432300
     55 H23          5.7800     4.2310     2.9100 hn         1 2Y0       0.432300
     56 H24          5.8900     5.2070     0.6300 ha         1 2Y0       0.142000
     57 H25          5.5490     5.9290    -1.7170 hn         1 2Y0       0.432300
     58 H26          4.7420     4.9230    -2.8400 hn         1 2Y0       0.432300
@<TRIPOS>BOND
     1     1     2 1   
     2     1    33 1   
     3     1    34 1   
     4     1    35 1   
     5     2     3 2   
     6     2     4 2   
     7     2     5 1   
     8     5     6 1   
     9     5    36 1   
    10     6     7 1   
    11     6    37 1   
    12     6    38 1   
    13     7     8 1   
    14     7    39 1   
    15     7    40 1   
    16     8     9 1   
    17     9    10 ar  
    18     9    11 ar  
    19    10    14 ar  
    20    10    41 1   
    21    11    12 ar  
    22    11    42 1   
    23    12    13 ar  
    24    12    43 1   
    25    13    14 ar  
    26    13    44 1   
    27    14    15 1   
    28    15    16 2   
    29    15    17 1   
    30    16    22 1   
    31    17    18 1   
    32    18    19 1   
    33    18    22 2   
    34    19    20 1   
    35    19    45 1   
    36    19    46 1   
    37    20    21 1   
    38    20    47 1   
    39    20    48 1   
    40    21    49 1   
    41    21    50 1   
    42    21    51 1   
    43    22    23 1   
    44    23    24 1   
    45    23    52 1   
    46    23    53 1   
    47    24    25 1   
    48    25    26 ar  
    49    25    27 ar  
    50    26    31 ar  
    51    27    28 ar  
    52    28    29 1   
    53    28    30 ar  
    54    29    54 1   
    55    29    55 1   
    56    30    31 ar  
    57    30    56 1   
    58    31    32 1   
    59    32    57 1   
    60    32    58 1   
@<TRIPOS>SUBSTRUCTURE
     1 2Y0         1 TEMP              0 ****  ****    0 ROOT
