@<TRIPOS>MOLECULE
2Y0
   58    60     1     0     0
SMALL
No Charge or Current Charge


@<TRIPOS>ATOM
      1 CAB         -5.4710     3.1450     1.4480 c3         1 2Y0      -0.387100
      2 SBF         -6.5360     2.7100     0.0870 s6         1 2Y0       1.194100
      3 OAE         -7.9280     2.6900     0.5410 o          1 2Y0      -0.528000
      4 OAF         -6.1580     3.4710    -1.1040 o          1 2Y0      -0.528000
      5 NAT         -6.1110     1.1320    -0.2210 n7         1 2Y0      -0.870300
      6 CAM         -6.4610     0.0880     0.7690 c3         1 2Y0       0.202800
      7 CAN         -5.8160    -1.2680     0.3980 c3         1 2Y0       0.163600
      8 OAU         -4.3830    -1.0970     0.3820 os         1 2Y0      -0.358100
      9 CAZ         -3.5210    -2.1330     0.0850 ca         1 2Y0       0.139100
     10 CAK         -2.1430    -1.8660     0.1070 ca         1 2Y0      -0.103000
     11 CAH         -3.9760    -3.4290    -0.2320 ca         1 2Y0      -0.185000
     12 CAG         -3.0490    -4.4410    -0.5240 ca         1 2Y0      -0.074000
     13 CAI         -1.6710    -4.1690    -0.5010 ca         1 2Y0      -0.134000
     14 CBA         -1.1930    -2.8750    -0.1860 ca         1 2Y0      -0.093500
     15 CBE          0.2530    -2.5720    -0.1560 cc         1 2Y0       0.484900
     16 NAS          0.7280    -1.3680     0.1470 nd         1 2Y0      -0.628000
     17 SAW          1.4610    -3.7860    -0.5180 ss         1 2Y0      -0.017400
     18 CBD          2.6820    -2.5800    -0.2410 cc         1 2Y0      -0.205300
     19 CAO          4.1440    -2.9190    -0.3820 c3         1 2Y0      -0.008100
     20 CAL          4.7560    -3.4440     0.9330 c3         1 2Y0      -0.073400
     21 CAA          6.2540    -3.7850     0.8120 c3         1 2Y0      -0.090100
     22 CBC          2.1140    -1.3690     0.0970 cd         1 2Y0       0.284300
     23 CAP          2.8660    -0.0990     0.4100 c3         1 2Y0       0.023300
     24 SAV          3.4840     0.8010    -1.0900 ss         1 2Y0      -0.311300
     25 C2           4.3620     2.2150    -0.4300 ca         1 2Y0       0.312300
     26 N3           4.9280     3.0380    -1.3360 nb         1 2Y0      -0.295500
     27 N1           4.4050     2.3700     0.9100 nb         1 2Y0      -0.295500
     28 C6           5.0710     3.4370     1.3600 ca         1 2Y0       0.413900
     29 NAC          5.1140     3.5930     2.7010 nv         1 2Y0      -1.070400
     30 C5           5.6900     4.3480     0.5150 ca         1 2Y0      -0.388000
     31 C4           5.5850     4.0940    -0.8470 ca         1 2Y0       0.413900
     32 NAD          6.1510     4.9190    -1.7540 nv         1 2Y0      -1.070400
     33 H1          -5.6650     4.1960     1.6850 h1         1 2Y0       0.101033
     34 H2          -5.7220     2.5050     2.3000 h1         1 2Y0       0.101033
     35 H3          -4.4330     3.0040     1.1300 h1         1 2Y0       0.101033
     36 H4          -5.0950     1.2070    -0.2440 hn         1 2Y0       0.497000
     37 H5          -6.1190     0.3590     1.7770 h1         1 2Y0       0.060700
     38 H6          -7.5500    -0.0460     0.8190 h1         1 2Y0       0.060700
     39 H7          -6.1100    -2.0210     1.1400 h1         1 2Y0       0.050200
     40 H8          -6.1830    -1.5850    -0.5870 h1         1 2Y0       0.050200
     41 H9          -1.8170    -0.8590     0.3550 ha         1 2Y0       0.149000
     42 H10         -5.0350    -3.6690    -0.2570 ha         1 2Y0       0.118000
     43 H11         -3.3990    -5.4420    -0.7690 ha         1 2Y0       0.116000
     44 H12         -0.9850    -4.9800    -0.7330 ha         1 2Y0       0.119000
     45 H13          4.2730    -3.6760    -1.1650 hc         1 2Y0       0.060200
     46 H14          4.7060    -2.0370    -0.7160 hc         1 2Y0       0.060200
     47 H15          4.6230    -2.6920     1.7210 hc         1 2Y0       0.043200
     48 H16          4.2100    -4.3400     1.2530 hc         1 2Y0       0.043200
     49 H17          6.6410    -4.1540     1.7690 hc         1 2Y0       0.034700
     50 H18          6.4150    -4.5610     0.0550 hc         1 2Y0       0.034700
     51 H19          6.8320    -2.8970     0.5270 hc         1 2Y0       0.034700
     52 H20          2.2100     0.5710     0.9790 h1         1 2Y0       0.087200
     53 H21          3.7220    -0.3500     1.0500 h1         1 2Y0       0.087200
     54 H22          4.4820     3.0360     3.2700 hn         1 2Y0       0.487500
     55 H23          5.4010     4.4920     3.0820 hn         1 2Y0       0.487500
     56 H24          6.2290     5.2090     0.8960 ha         1 2Y0       0.124000
     57 H25          6.4540     5.8410    -1.4510 hn         1 2Y0       0.487500
     58 H26          5.8820     4.8230    -2.7300 hn         1 2Y0       0.487500
@<TRIPOS>BOND
     1     1     2 1   
     2     1    33 1   
     3     1    34 1   
     4     1    35 1   
     5     2     3 2   
     6     2     4 2   
     7     2     5 1   
     8     5     6 1   
     9     5    36 1   
    10     6     7 1   
    11     6    37 1   
    12     6    38 1   
    13     7     8 1   
    14     7    39 1   
    15     7    40 1   
    16     8     9 1   
    17     9    10 ar  
    18     9    11 ar  
    19    10    14 ar  
    20    10    41 1   
    21    11    12 ar  
    22    11    42 1   
    23    12    13 ar  
    24    12    43 1   
    25    13    14 ar  
    26    13    44 1   
    27    14    15 1   
    28    15    16 2   
    29    15    17 1   
    30    16    22 1   
    31    17    18 1   
    32    18    19 1   
    33    18    22 2   
    34    19    20 1   
    35    19    45 1   
    36    19    46 1   
    37    20    21 1   
    38    20    47 1   
    39    20    48 1   
    40    21    49 1   
    41    21    50 1   
    42    21    51 1   
    43    22    23 1   
    44    23    24 1   
    45    23    52 1   
    46    23    53 1   
    47    24    25 1   
    48    25    26 ar  
    49    25    27 ar  
    50    26    31 ar  
    51    27    28 ar  
    52    28    29 1   
    53    28    30 ar  
    54    29    54 1   
    55    29    55 1   
    56    30    31 ar  
    57    30    56 1   
    58    31    32 1   
    59    32    57 1   
    60    32    58 1   
@<TRIPOS>SUBSTRUCTURE
     1 2Y0         1 TEMP              0 ****  ****    0 ROOT
