@<TRIPOS>MOLECULE
2Y1
   57    59     1     0     0
SMALL
No Charge or Current Charge


@<TRIPOS>ATOM
      1 FAF          8.5360    -1.3250     0.4290 f          1 2Y1      -0.259000
      2 CAL          7.8170    -1.6460    -0.6780 c3         1 2Y1       0.188600
      3 CAM          6.3180    -1.3480    -0.4630 c3         1 2Y1       0.125600
      4 OAS          6.1490     0.0740    -0.2950 os         1 2Y1      -0.319100
      5 CAZ          4.9120     0.6630    -0.0840 ca         1 2Y1       0.109100
      6 CAJ          3.7240    -0.1030    -0.0150 ca         1 2Y1      -0.158000
      7 CAY          4.8520     2.0670     0.0660 ca         1 2Y1       0.131100
      8 OAR          6.0300     2.7950    -0.0050 os         1 2Y1      -0.317100
      9 CAB          6.0640     4.2260     0.1370 c3         1 2Y1       0.144900
     10 CAH          3.6050     2.6890     0.2830 ca         1 2Y1      -0.182000
     11 CAG          2.4310     1.9220     0.3490 ca         1 2Y1      -0.056000
     12 CAX          2.4690     0.5170     0.2020 ca         1 2Y1      -0.140500
     13 CBC          1.2200    -0.2720     0.2760 cc         1 2Y1       0.508900
     14 NAQ          0.0340     0.2870     0.4840 nd         1 2Y1      -0.638000
     15 SAU          1.2080    -2.0110     0.0940 ss         1 2Y1      -0.045400
     16 CBB         -0.5170    -1.9720     0.3160 cc         1 2Y1      -0.207300
     17 CAN         -1.3190    -3.2490     0.2730 c3         1 2Y1      -0.001100
     18 CAK         -2.0430    -3.4470    -1.0750 c3         1 2Y1      -0.078400
     19 CAA         -2.8740    -4.7440    -1.1320 c3         1 2Y1      -0.089100
     20 CBD         -0.9650    -0.6800     0.5070 cd         1 2Y1       0.293300
     21 CBE         -2.4110    -0.2650     0.7160 c3         1 2Y1       0.044000
     22 CAC         -2.6040     0.6080     1.9770 c3         1 2Y1      -0.075100
     23 SAT         -3.1300     0.5950    -0.7640 ss         1 2Y1      -0.311300
     24 C2          -4.8810     0.6520    -0.4170 ca         1 2Y1       0.311300
     25 N3          -5.5080     1.8190    -0.6630 nb         1 2Y1      -0.297500
     26 N1          -5.4600    -0.4710     0.0590 nb         1 2Y1      -0.297500
     27 C6          -6.7700    -0.3980     0.3080 ca         1 2Y1       0.416400
     28 NAD         -7.3510    -1.5190     0.7850 nv         1 2Y1      -1.074400
     29 C5          -7.5120     0.7560     0.0930 ca         1 2Y1      -0.391000
     30 C4          -6.8170     1.8520    -0.4010 ca         1 2Y1       0.416400
     31 NAE         -7.4480     3.0210    -0.6460 nv         1 2Y1      -1.074400
     32 H1           8.1980    -1.0700    -1.5300 h1         1 2Y1       0.053700
     33 H2           7.9550    -2.7150    -0.8850 h1         1 2Y1       0.053700
     34 H3           5.7570    -1.7010    -1.3380 h1         1 2Y1       0.044200
     35 H4           5.9650    -1.8920     0.4220 h1         1 2Y1       0.044200
     36 H5           3.7740    -1.1800    -0.1310 ha         1 2Y1       0.118000
     37 H6           5.4620     4.7100    -0.6440 h1         1 2Y1       0.042033
     38 H7           5.6800     4.5300     1.1190 h1         1 2Y1       0.042033
     39 H8           7.0940     4.5920     0.0470 h1         1 2Y1       0.042033
     40 H9           3.5240     3.7660     0.4020 ha         1 2Y1       0.124000
     41 H10          1.4840     2.4330     0.5170 ha         1 2Y1       0.141000
     42 H11         -0.6590    -4.1060     0.4520 hc         1 2Y1       0.052200
     43 H12         -2.0540    -3.2580     1.0880 hc         1 2Y1       0.052200
     44 H13         -2.7040    -2.5930    -1.2650 hc         1 2Y1       0.050700
     45 H14         -1.3010    -3.4610    -1.8830 hc         1 2Y1       0.050700
     46 H15         -3.6490    -4.7420    -0.3560 hc         1 2Y1       0.032033
     47 H16         -3.3650    -4.8400    -2.1080 hc         1 2Y1       0.032033
     48 H17         -2.2340    -5.6220    -0.9820 hc         1 2Y1       0.032033
     49 H18         -2.9920    -1.1820     0.8670 h1         1 2Y1       0.093700
     50 H19         -2.1000     1.5750     1.8640 hc         1 2Y1       0.047700
     51 H20         -3.6680     0.7960     2.1640 hc         1 2Y1       0.047700
     52 H21         -2.1910     0.1040     2.8580 hc         1 2Y1       0.047700
     53 H22         -6.8310    -2.3910     0.7250 hn         1 2Y1       0.488750
     54 H23         -8.3660    -1.5900     0.7700 hn         1 2Y1       0.488750
     55 H24         -8.5760     0.7990     0.3030 ha         1 2Y1       0.124000
     56 H25         -8.4640     3.0260    -0.6880 hn         1 2Y1       0.488750
     57 H26         -6.9630     3.7250    -1.1980 hn         1 2Y1       0.488750
@<TRIPOS>BOND
     1     1     2 1   
     2     2     3 1   
     3     2    32 1   
     4     2    33 1   
     5     3     4 1   
     6     3    34 1   
     7     3    35 1   
     8     4     5 1   
     9     5     6 ar  
    10     5     7 ar  
    11     6    12 ar  
    12     6    36 1   
    13     7     8 1   
    14     7    10 ar  
    15     8     9 1   
    16     9    37 1   
    17     9    38 1   
    18     9    39 1   
    19    10    11 ar  
    20    10    40 1   
    21    11    12 ar  
    22    11    41 1   
    23    12    13 1   
    24    13    14 2   
    25    13    15 1   
    26    14    20 1   
    27    15    16 1   
    28    16    17 1   
    29    16    20 2   
    30    17    18 1   
    31    17    42 1   
    32    17    43 1   
    33    18    19 1   
    34    18    44 1   
    35    18    45 1   
    36    19    46 1   
    37    19    47 1   
    38    19    48 1   
    39    20    21 1   
    40    21    22 1   
    41    21    23 1   
    42    21    49 1   
    43    22    50 1   
    44    22    51 1   
    45    22    52 1   
    46    23    24 1   
    47    24    25 ar  
    48    24    26 ar  
    49    25    30 ar  
    50    26    27 ar  
    51    27    28 1   
    52    27    29 ar  
    53    28    53 1   
    54    28    54 1   
    55    29    30 ar  
    56    29    55 1   
    57    30    31 1   
    58    31    56 1   
    59    31    57 1   
@<TRIPOS>SUBSTRUCTURE
     1 2Y1         1 TEMP              0 ****  ****    0 ROOT
