@<TRIPOS>MOLECULE
2Y1
   57    59     1     0     0
SMALL
bcc


@<TRIPOS>ATOM
      1 FAF          8.3560    -1.3650     0.4220 f          1 2Y1      -0.240300
      2 CAL          7.6080    -1.6250    -0.7210 c3         1 2Y1       0.169900
      3 CAM          6.1620    -1.2930    -0.4930 c3         1 2Y1       0.102400
      4 OAS          6.0450     0.1070    -0.3330 os         1 2Y1      -0.295900
      5 CAZ          4.8280     0.6290    -0.0960 ca         1 2Y1       0.109100
      6 CAJ          3.6580    -0.1000    -0.0130 ca         1 2Y1      -0.176000
      7 CAY          4.7930     2.0300     0.0740 ca         1 2Y1       0.131100
      8 OAR          5.9730     2.6580    -0.0340 os         1 2Y1      -0.293900
      9 CAB          5.9990     4.0650     0.1120 c3         1 2Y1       0.121700
     10 CAH          3.5800     2.6490     0.3320 ca         1 2Y1      -0.200000
     11 CAG          2.4090     1.9070     0.4200 ca         1 2Y1      -0.074000
     12 CAX          2.4330     0.5310     0.2450 ca         1 2Y1      -0.140500
     13 CBC          1.1900    -0.2290     0.3310 cc         1 2Y1       0.508900
     14 NAQ          0.0650     0.2620     0.7480 nd         1 2Y1      -0.638000
     15 SAU          1.0750    -1.8920    -0.1440 ss         1 2Y1      -0.190300
     16 CBB         -0.5990    -1.8970     0.2620 cc         1 2Y1      -0.127700
     17 CAN         -1.4690    -3.0870     0.0280 c3         1 2Y1      -0.001100
     18 CAK         -2.2380    -2.9970    -1.2940 c3         1 2Y1      -0.078400
     19 CAA         -3.1380    -4.2030    -1.5150 c3         1 2Y1      -0.089100
     20 CBD         -0.9420    -0.6560     0.7140 cd         1 2Y1       0.358600
     21 CBE         -2.3160    -0.2460     1.1330 c3         1 2Y1      -0.003900
     22 CAC         -2.3540     0.3910     2.5130 c3         1 2Y1      -0.075100
     23 SAT         -2.9240     0.9050    -0.1570 ss         1 2Y1      -0.263400
     24 C2          -4.6740     0.7010    -0.0780 ca         1 2Y1       0.837300
     25 N3          -5.3080     1.4690    -0.9460 nb         1 2Y1      -0.823500
     26 N1          -5.1800    -0.1580     0.7770 nb         1 2Y1      -0.823500
     27 C6          -6.5210    -0.2810     0.7630 ca         1 2Y1       0.744700
     28 NAD         -7.0480    -1.1530     1.6360 nv         1 2Y1      -0.964000
     29 C5          -7.3100     0.4670    -0.1090 ca         1 2Y1      -0.539600
     30 C4          -6.6460     1.3490    -0.9590 ca         1 2Y1       0.744700
     31 NAE         -7.3130     2.1530    -1.8160 nv         1 2Y1      -0.964000
     32 H1           8.0230    -1.0410    -1.5440 h1         1 2Y1       0.053700
     33 H2           7.6950    -2.6850    -0.9610 h1         1 2Y1       0.053700
     34 H3           5.5920    -1.6410    -1.3610 h1         1 2Y1       0.044200
     35 H4           5.7850    -1.8230     0.3890 h1         1 2Y1       0.044200
     36 H5           3.6880    -1.1750    -0.1380 ha         1 2Y1       0.136000
     37 H6           5.3860     4.5640    -0.6430 h1         1 2Y1       0.042033
     38 H7           5.6640     4.3780     1.1030 h1         1 2Y1       0.042033
     39 H8           7.0350     4.3680    -0.0210 h1         1 2Y1       0.042033
     40 H9           3.5240     3.7210     0.4640 ha         1 2Y1       0.142000
     41 H10          1.4740     2.4120     0.6200 ha         1 2Y1       0.159000
     42 H11         -0.8720    -4.0010     0.0430 hc         1 2Y1       0.052200
     43 H12         -2.1780    -3.1800     0.8560 hc         1 2Y1       0.052200
     44 H13         -2.8340    -2.0800    -1.3020 hc         1 2Y1       0.050700
     45 H14         -1.5250    -2.9060    -2.1180 hc         1 2Y1       0.050700
     46 H15         -3.8820    -4.2930    -0.7220 hc         1 2Y1       0.032033
     47 H16         -3.6730    -4.1270    -2.4620 hc         1 2Y1       0.032033
     48 H17         -2.5620    -5.1300    -1.5340 hc         1 2Y1       0.032033
     49 H18         -2.9840    -1.1070     1.1080 h1         1 2Y1       0.093700
     50 H19         -1.7080     1.2660     2.5610 hc         1 2Y1       0.047700
     51 H20         -3.3710     0.6900     2.7630 hc         1 2Y1       0.047700
     52 H21         -2.0170    -0.3250     3.2640 hc         1 2Y1       0.047700
     53 H22         -6.4410    -1.7240     2.1990 hn         1 2Y1       0.433550
     54 H23         -8.0310    -1.3550     1.6440 hn         1 2Y1       0.433550
     55 H24         -8.3870     0.3670    -0.1240 ha         1 2Y1       0.142000
     56 H25         -8.2750     1.9520    -2.0280 hn         1 2Y1       0.433550
     57 H26         -6.7860     2.5900    -2.5540 hn         1 2Y1       0.433550
@<TRIPOS>BOND
     1     1     2 1   
     2     2     3 1   
     3     2    32 1   
     4     2    33 1   
     5     3     4 1   
     6     3    34 1   
     7     3    35 1   
     8     4     5 1   
     9     5     6 ar  
    10     5     7 ar  
    11     6    12 ar  
    12     6    36 1   
    13     7     8 1   
    14     7    10 ar  
    15     8     9 1   
    16     9    37 1   
    17     9    38 1   
    18     9    39 1   
    19    10    11 ar  
    20    10    40 1   
    21    11    12 ar  
    22    11    41 1   
    23    12    13 1   
    24    13    14 2   
    25    13    15 1   
    26    14    20 1   
    27    15    16 1   
    28    16    17 1   
    29    16    20 2   
    30    17    18 1   
    31    17    42 1   
    32    17    43 1   
    33    18    19 1   
    34    18    44 1   
    35    18    45 1   
    36    19    46 1   
    37    19    47 1   
    38    19    48 1   
    39    20    21 1   
    40    21    22 1   
    41    21    23 1   
    42    21    49 1   
    43    22    50 1   
    44    22    51 1   
    45    22    52 1   
    46    23    24 1   
    47    24    25 ar  
    48    24    26 ar  
    49    25    30 ar  
    50    26    27 ar  
    51    27    28 1   
    52    27    29 ar  
    53    28    53 1   
    54    28    54 1   
    55    29    30 ar  
    56    29    55 1   
    57    30    31 1   
    58    31    56 1   
    59    31    57 1   
@<TRIPOS>SUBSTRUCTURE
     1 2Y1         1 TEMP              0 ****  ****    0 ROOT
