@<TRIPOS>MOLECULE
2Y2
   93    96     1     0     0
SMALL
bcc


@<TRIPOS>ATOM
      1 N2           6.6630     0.0890     1.3160 nc         1 2Y2      -0.562100
      2 C1           6.5910    -0.1550     0.0360 cd         1 2Y2       0.351800
      3 N1           7.6960     0.2250    -0.6470 na         1 2Y2      -0.223300
      4 C7           8.5600     0.7630     0.2620 ca         1 2Y2      -0.074200
      5 C6           9.8330     1.3160     0.1410 ca         1 2Y2      -0.132000
      6 C5          10.4200     1.7700     1.3050 ca         1 2Y2      -0.105000
      7 C4           9.7680     1.6790     2.5480 ca         1 2Y2      -0.154000
      8 C3           8.5060     1.1320     2.6620 ca         1 2Y2      -0.061000
      9 C2           7.8920     0.6670     1.4960 ca         1 2Y2       0.063400
     10 C8           5.4420    -0.7790    -0.6660 c          1 2Y2       0.627800
     11 O1           5.4810    -0.9730    -1.8710 o          1 2Y2      -0.608100
     12 N3           4.4180    -1.0750     0.1420 ns         1 2Y2      -0.536900
     13 C9           3.1890    -1.6780    -0.3050 c3         1 2Y2       0.047700
     14 C10          3.0420    -3.1150     0.1920 c3         1 2Y2      -0.012300
     15 S1           4.3620    -4.1510    -0.4930 ss         1 2Y2      -0.309200
     16 C11          3.9790    -5.6940     0.3640 c3         1 2Y2      -0.013000
     17 C12          2.0190    -0.8530     0.2360 c          1 2Y2       0.655100
     18 O2           2.0090    -0.4980     1.4050 o          1 2Y2      -0.601100
     19 N4           1.0550    -0.6000    -0.6530 ns         1 2Y2      -0.556900
     20 C13         -0.1710     0.1200    -0.3660 c3         1 2Y2       0.079700
     21 C14         -0.3240     1.2950    -1.3350 c3         1 2Y2      -0.088400
     22 C15          0.8440     2.2820    -1.3350 c6         1 2Y2      -0.057700
     23 C16          1.0830     2.9160     0.0350 c6         1 2Y2      -0.073400
     24 C17          0.6170     3.3710    -2.3860 c6         1 2Y2      -0.073400
     25 C18          2.2270     3.9240     0.0050 c6         1 2Y2      -0.072400
     26 C19          1.7640     4.3750    -2.4250 c6         1 2Y2      -0.072400
     27 C20          2.0050     4.9980    -1.0540 c6         1 2Y2      -0.075400
     28 C21         -1.3510    -0.8700    -0.3910 c3         1 2Y2       0.126100
     29 O3          -1.4880    -1.4920    -1.6510 oh         1 2Y2      -0.596800
     30 C22         -2.6460    -0.2280     0.0890 c3         1 2Y2      -0.106400
     31 C23         -3.8430    -1.1850     0.1400 c3         1 2Y2      -0.133700
     32 C24         -3.6180    -2.3460     1.1170 c3         1 2Y2       0.017700
     33 C25         -4.7830    -3.2150     1.2150 c1         1 2Y2      -0.147100
     34 C26         -5.7620    -3.9110     1.2760 c1         1 2Y2      -0.152500
     35 C27         -5.0660    -0.3890     0.5670 c          1 2Y2       0.666100
     36 O4          -5.1940     0.0110     1.7160 o          1 2Y2      -0.594100
     37 O5         -12.3240     1.0440     0.3010 os         1 2Y2      -0.403600
     38 C28        -11.7090     0.6720     1.5160 c6         1 2Y2       0.129900
     39 C29        -10.4960    -0.2090     1.2830 c6         1 2Y2       0.128800
     40 N5          -9.5440     0.4780     0.4300 n3         1 2Y2      -0.719600
     41 C30        -10.1880     0.8390    -0.8210 c6         1 2Y2       0.128800
     42 C31        -11.4050     1.7000    -0.5440 c6         1 2Y2       0.129900
     43 C32         -8.3230    -0.2770     0.2400 c3         1 2Y2       0.145800
     44 C33         -7.1680     0.6200    -0.2010 c3         1 2Y2       0.101000
     45 N6          -5.9500    -0.1290    -0.4070 ns         1 2Y2      -0.572900
     46 HN1          7.8390     0.1240    -1.6400 hn         1 2Y2       0.327700
     47 H6          10.3370     1.3880    -0.8130 ha         1 2Y2       0.139000
     48 H5          11.4080     2.2100     1.2610 ha         1 2Y2       0.132000
     49 H4          10.2710     2.0470     3.4330 ha         1 2Y2       0.134000
     50 H3           8.0060     1.0610     3.6190 ha         1 2Y2       0.148000
     51 HN3          4.5130    -0.8660     1.1260 hn         1 2Y2       0.363500
     52 H9           3.1880    -1.6730    -1.3970 h1         1 2Y2       0.095700
     53 H10          2.0710    -3.5090    -0.1170 h1         1 2Y2       0.073200
     54 H10A         3.0870    -3.1430     1.2830 h1         1 2Y2       0.073200
     55 H11          4.7150    -6.4330     0.0500 h1         1 2Y2       0.061700
     56 H11A         4.0470    -5.5700     1.4430 h1         1 2Y2       0.061700
     57 H11B         2.9860    -6.0580     0.1020 h1         1 2Y2       0.061700
     58 HN4          1.1700    -0.9420    -1.5950 hn         1 2Y2       0.324500
     59 H13         -0.0930     0.4970     0.6540 h1         1 2Y2       0.093700
     60 H14         -0.4550     0.9150    -2.3550 hc         1 2Y2       0.042700
     61 H14A        -1.2420     1.8360    -1.0890 hc         1 2Y2       0.042700
     62 H15          1.7530     1.7390    -1.6210 hc         1 2Y2       0.051700
     63 H16          0.1640     3.4170     0.3610 hc         1 2Y2       0.040200
     64 H16A         1.2960     2.1480     0.7830 hc         1 2Y2       0.040200
     65 H17          0.4850     2.9120    -3.3700 hc         1 2Y2       0.040200
     66 H17A        -0.3190     3.8960    -2.1630 hc         1 2Y2       0.040200
     67 H18          2.3450     4.3830     0.9900 hc         1 2Y2       0.040700
     68 H18A         3.1660     3.3980    -0.2040 hc         1 2Y2       0.040700
     69 H19          2.6770     3.8680    -2.7570 hc         1 2Y2       0.040700
     70 H19A         1.5580     5.1520    -3.1650 hc         1 2Y2       0.040700
     71 H20          1.1370     5.6060    -0.7770 hc         1 2Y2       0.038700
     72 H20A         2.8600     5.6780    -1.0910 hc         1 2Y2       0.038700
     73 H21         -1.0790    -1.6750     0.3000 h1         1 2Y2       0.082700
     74 HO3         -1.8780    -0.8640    -2.2670 ho         1 2Y2       0.400000
     75 H22         -2.4780     0.1950     1.0840 hc         1 2Y2       0.062700
     76 H22A        -2.9110     0.6110    -0.5630 hc         1 2Y2       0.062700
     77 H23         -4.0050    -1.6020    -0.8580 hc         1 2Y2       0.060700
     78 H24         -2.7620    -2.9400     0.7920 hc         1 2Y2       0.072200
     79 H24A        -3.3690    -1.9560     2.1070 hc         1 2Y2       0.072200
     80 H26         -6.6280    -4.5280     1.3350 ha         1 2Y2       0.166500
     81 H28A       -12.4540     0.1400     2.1090 h1         1 2Y2       0.051700
     82 H29        -10.8150    -1.1730     0.8510 h1         1 2Y2       0.040450
     83 H29A       -10.0300    -0.4270     2.2470 h1         1 2Y2       0.040450
     84 H30         -9.5020     1.4070    -1.4520 h1         1 2Y2       0.040450
     85 H30A       -10.4890    -0.0560    -1.3950 h1         1 2Y2       0.040450
     86 H31        -11.9240     1.9310    -1.4760 h1         1 2Y2       0.051700
     87 H31A       -11.0770     2.6460    -0.0940 h1         1 2Y2       0.051700
     88 H32         -8.0480    -0.7370     1.1920 h1         1 2Y2       0.041200
     89 H32A        -8.4470    -1.0990    -0.4840 h1         1 2Y2       0.041200
     90 H33         -6.9970     1.3880     0.5530 h1         1 2Y2       0.061700
     91 H33A        -7.4000     1.1310    -1.1350 h1         1 2Y2       0.061700
     92 HN6         -5.8010    -0.5370    -1.3150 hn         1 2Y2       0.311500
     93 H28        -11.4020     1.5650     2.0790 h1         1 2Y2       0.051700
@<TRIPOS>BOND
     1     1     2 2   
     2     1     9 1   
     3     2     3 1   
     4     2    10 1   
     5     3     4 1   
     6     3    46 1   
     7     4     5 ar  
     8     4     9 ar  
     9     5     6 ar  
    10     5    47 1   
    11     6     7 ar  
    12     6    48 1   
    13     7     8 ar  
    14     7    49 1   
    15     8     9 ar  
    16     8    50 1   
    17    10    11 2   
    18    10    12 1   
    19    12    13 1   
    20    12    51 1   
    21    13    14 1   
    22    13    17 1   
    23    13    52 1   
    24    14    15 1   
    25    14    53 1   
    26    14    54 1   
    27    15    16 1   
    28    16    55 1   
    29    16    56 1   
    30    16    57 1   
    31    17    18 2   
    32    17    19 1   
    33    19    20 1   
    34    19    58 1   
    35    20    21 1   
    36    20    28 1   
    37    20    59 1   
    38    21    22 1   
    39    21    60 1   
    40    21    61 1   
    41    22    23 1   
    42    22    24 1   
    43    22    62 1   
    44    23    25 1   
    45    23    63 1   
    46    23    64 1   
    47    24    26 1   
    48    24    65 1   
    49    24    66 1   
    50    25    27 1   
    51    25    67 1   
    52    25    68 1   
    53    26    27 1   
    54    26    69 1   
    55    26    70 1   
    56    27    71 1   
    57    27    72 1   
    58    28    29 1   
    59    28    30 1   
    60    28    73 1   
    61    29    74 1   
    62    30    31 1   
    63    30    75 1   
    64    30    76 1   
    65    31    32 1   
    66    31    35 1   
    67    31    77 1   
    68    32    33 1   
    69    32    78 1   
    70    32    79 1   
    71    33    34 3   
    72    34    80 1   
    73    35    36 2   
    74    35    45 1   
    75    37    38 1   
    76    37    42 1   
    77    38    39 1   
    78    38    81 1   
    79    38    93 1   
    80    39    40 1   
    81    39    82 1   
    82    39    83 1   
    83    40    41 1   
    84    40    43 1   
    85    41    42 1   
    86    41    84 1   
    87    41    85 1   
    88    42    86 1   
    89    42    87 1   
    90    43    44 1   
    91    43    88 1   
    92    43    89 1   
    93    44    45 1   
    94    44    90 1   
    95    44    91 1   
    96    45    92 1   
@<TRIPOS>SUBSTRUCTURE
     1 2Y2         1 TEMP              0 ****  ****    0 ROOT
