@<TRIPOS>MOLECULE
2Y2
   93    96     1     0     0
SMALL
No Charge or Current Charge


@<TRIPOS>ATOM
      1 N2           6.1950    -1.0440     2.4510 nc         1 2Y2      -0.562100
      2 C1           6.6990    -0.6120     1.2640 cd         1 2Y2       0.351800
      3 N1           8.0780    -0.3330     1.3270 na         1 2Y2      -0.273600
      4 C7           8.4180    -0.6140     2.6200 ca         1 2Y2      -0.074200
      5 C6           9.6710    -0.5150     3.2390 ca         1 2Y2      -0.114000
      6 C5           9.7600    -0.8680     4.6020 ca         1 2Y2      -0.087000
      7 C4           8.6090    -1.3050     5.2990 ca         1 2Y2      -0.136000
      8 C3           7.3640    -1.3900     4.6360 ca         1 2Y2      -0.043000
      9 C2           7.3010    -1.0340     3.2810 ca         1 2Y2       0.063400
     10 C8           5.8580    -0.4500     0.0160 c          1 2Y2       0.560800
     11 O1           6.2890    -0.0530    -1.0630 o          1 2Y2      -0.608100
     12 N3           4.5260    -0.7800     0.1980 ns         1 2Y2      -0.469900
     13 C9           3.4820    -0.7710    -0.8550 c3         1 2Y2       0.047700
     14 C10          3.1480    -2.2080    -1.3270 c3         1 2Y2       0.035600
     15 S1           4.6150    -3.0590    -2.0760 ss         1 2Y2      -0.405000
     16 C11          3.8610    -4.7000    -2.4770 c3         1 2Y2       0.034900
     17 C12          2.2010    -0.0630    -0.3380 c          1 2Y2       0.588100
     18 O2           1.9910     0.1620     0.8480 o          1 2Y2      -0.601100
     19 N4           1.3000     0.3030    -1.3160 ns         1 2Y2      -0.489900
     20 C13          0.0010     0.9410    -1.0600 c3         1 2Y2       0.079700
     21 C14         -0.3980     1.8600    -2.2530 c3         1 2Y2      -0.088400
     22 C15          0.6600     2.9260    -2.6890 c6         1 2Y2      -0.057700
     23 C16          1.0330     3.9050    -1.5380 c6         1 2Y2      -0.073400
     24 C17          0.1560     3.7210    -3.9270 c6         1 2Y2      -0.073400
     25 C18          2.0630     4.9660    -2.0010 c6         1 2Y2      -0.072400
     26 C19          1.1890     4.7770    -4.3900 c6         1 2Y2      -0.072400
     27 C20          1.5520     5.7440    -3.2380 c6         1 2Y2      -0.075400
     28 C21         -1.0670    -0.1310    -0.6610 c3         1 2Y2       0.149300
     29 O3          -1.2730    -1.0640    -1.7360 oh         1 2Y2      -0.659000
     30 C22         -2.4320     0.4690    -0.2250 c3         1 2Y2      -0.106400
     31 C23         -3.4640    -0.5490     0.3520 c3         1 2Y2      -0.133700
     32 C24         -3.0150    -1.1910     1.6950 c3         1 2Y2       0.017700
     33 C25         -3.9780    -2.1780     2.2080 c1         1 2Y2      -0.147100
     34 C26         -4.7950    -2.9730     2.6120 c1         1 2Y2      -0.240000
     35 C27         -4.8460     0.1220     0.5080 c          1 2Y2       0.599100
     36 O4          -5.0370     1.0810     1.2430 o          1 2Y2      -0.594100
     37 O5         -12.2470    -0.4690     1.6620 os         1 2Y2      -0.450000
     38 C28        -11.4370     0.1140     2.7100 c6         1 2Y2       0.153100
     39 C29         -9.9580    -0.3570     2.5750 c6         1 2Y2       0.128800
     40 N5          -9.3970    -0.0580     1.2200 n3         1 2Y2      -0.719600
     41 C30        -10.2980    -0.6010     0.1500 c6         1 2Y2       0.128800
     42 C31        -11.7720    -0.1290     0.3370 c6         1 2Y2       0.153100
     43 C32         -7.9790    -0.4860     1.0920 c3         1 2Y2       0.145800
     44 C33         -7.2610    -0.0160    -0.2010 c3         1 2Y2       0.101000
     45 N6          -5.8540    -0.4330    -0.2500 ns         1 2Y2      -0.505900
     46 HN1          8.6650    -0.0010     0.5710 hn         1 2Y2       0.378000
     47 H6          10.5470    -0.1770     2.6900 ha         1 2Y2       0.121000
     48 H5          10.7160    -0.8040     5.1170 ha         1 2Y2       0.114000
     49 H4           8.6820    -1.5760     6.3490 ha         1 2Y2       0.116000
     50 H3           6.4740    -1.7250     5.1630 ha         1 2Y2       0.130000
     51 HN3          4.2670    -1.0530     1.1430 hn         1 2Y2       0.363500
     52 H9           3.8390    -0.1910    -1.7160 h1         1 2Y2       0.095700
     53 H10          2.3450    -2.1750    -2.0760 h1         1 2Y2       0.073200
     54 H10A         2.7890    -2.7990    -0.4740 h1         1 2Y2       0.073200
     55 H11          4.6140    -5.3490    -2.9420 h1         1 2Y2       0.061700
     56 H11A         3.4950    -5.1770    -1.5590 h1         1 2Y2       0.061700
     57 H11B         3.0240    -4.5660    -3.1730 h1         1 2Y2       0.061700
     58 HN4          1.5370     0.0710    -2.2730 hn         1 2Y2       0.324500
     59 H13          0.1220     1.5910    -0.1830 h1         1 2Y2       0.093700
     60 H14         -0.6340     1.2260    -3.1160 hc         1 2Y2       0.042700
     61 H14A        -1.3280     2.3810    -1.9980 hc         1 2Y2       0.042700
     62 H15          1.5650     2.3790    -2.9880 hc         1 2Y2       0.051700
     63 H16          0.1290     4.4070    -1.1660 hc         1 2Y2       0.040200
     64 H16A         1.4570     3.3540    -0.6880 hc         1 2Y2       0.040200
     65 H17         -0.0550     3.0310    -4.7560 hc         1 2Y2       0.040200
     66 H17A        -0.7950     4.2190    -3.6900 hc         1 2Y2       0.040200
     67 H18          2.2710     5.6660    -1.1810 hc         1 2Y2       0.040700
     68 H18A         3.0160     4.4750    -2.2410 hc         1 2Y2       0.040700
     69 H19          2.0960     4.2750    -4.7520 hc         1 2Y2       0.040700
     70 H19A         0.7860     5.3450    -5.2400 hc         1 2Y2       0.040700
     71 H20          0.6720     6.3410    -2.9630 hc         1 2Y2       0.038700
     72 H20A         2.3190     6.4550    -3.5740 hc         1 2Y2       0.038700
     73 H21         -0.6500    -0.6640     0.2030 h1         1 2Y2       0.082700
     74 HO3         -1.6350    -0.5570    -2.4930 ho         1 2Y2       0.439000
     75 H22         -2.2510     1.2520     0.5230 hc         1 2Y2       0.062700
     76 H22A        -2.8930     0.9690    -1.0850 hc         1 2Y2       0.062700
     77 H23         -3.5730    -1.3610    -0.3770 hc         1 2Y2       0.060700
     78 H24         -2.0510    -1.6970     1.5690 hc         1 2Y2       0.072200
     79 H24A        -2.8680    -0.4100     2.4510 hc         1 2Y2       0.072200
     80 H26         -5.5100    -3.6850     2.9770 ha         1 2Y2       0.254000
     81 H28A       -11.8390    -0.1890     3.6870 h1         1 2Y2       0.051700
     82 H29         -9.9150    -1.4380     2.7750 h1         1 2Y2       0.040450
     83 H29A        -9.3590     0.1390     3.3530 h1         1 2Y2       0.040450
     84 H30         -9.9610    -0.2780    -0.8450 h1         1 2Y2       0.040450
     85 H30A       -10.2780    -1.7010     0.1570 h1         1 2Y2       0.040450
     86 H31        -12.4170    -0.6100    -0.4110 h1         1 2Y2       0.051700
     87 H31A       -11.8370     0.9600     0.1970 h1         1 2Y2       0.051700
     88 H32         -7.4090    -0.0970     1.9460 h1         1 2Y2       0.041200
     89 H32A        -7.9150    -1.5820     1.1430 h1         1 2Y2       0.041200
     90 H33         -7.3130     1.0780    -0.2670 h1         1 2Y2       0.061700
     91 H33A        -7.7700    -0.4330    -1.0790 h1         1 2Y2       0.061700
     92 HN6         -5.6040    -1.2230    -0.8320 hn         1 2Y2       0.311500
     93 H28        -11.4900     1.2110     2.6430 h1         1 2Y2       0.051700
@<TRIPOS>BOND
     1     1     2 2   
     2     1     9 1   
     3     2     3 1   
     4     2    10 1   
     5     3     4 1   
     6     3    46 1   
     7     4     5 ar  
     8     4     9 ar  
     9     5     6 ar  
    10     5    47 1   
    11     6     7 ar  
    12     6    48 1   
    13     7     8 ar  
    14     7    49 1   
    15     8     9 ar  
    16     8    50 1   
    17    10    11 2   
    18    10    12 1   
    19    12    13 1   
    20    12    51 1   
    21    13    14 1   
    22    13    17 1   
    23    13    52 1   
    24    14    15 1   
    25    14    53 1   
    26    14    54 1   
    27    15    16 1   
    28    16    55 1   
    29    16    56 1   
    30    16    57 1   
    31    17    18 2   
    32    17    19 1   
    33    19    20 1   
    34    19    58 1   
    35    20    21 1   
    36    20    28 1   
    37    20    59 1   
    38    21    22 1   
    39    21    60 1   
    40    21    61 1   
    41    22    23 1   
    42    22    24 1   
    43    22    62 1   
    44    23    25 1   
    45    23    63 1   
    46    23    64 1   
    47    24    26 1   
    48    24    65 1   
    49    24    66 1   
    50    25    27 1   
    51    25    67 1   
    52    25    68 1   
    53    26    27 1   
    54    26    69 1   
    55    26    70 1   
    56    27    71 1   
    57    27    72 1   
    58    28    29 1   
    59    28    30 1   
    60    28    73 1   
    61    29    74 1   
    62    30    31 1   
    63    30    75 1   
    64    30    76 1   
    65    31    32 1   
    66    31    35 1   
    67    31    77 1   
    68    32    33 1   
    69    32    78 1   
    70    32    79 1   
    71    33    34 3   
    72    34    80 1   
    73    35    36 2   
    74    35    45 1   
    75    37    38 1   
    76    37    42 1   
    77    38    39 1   
    78    38    81 1   
    79    38    93 1   
    80    39    40 1   
    81    39    82 1   
    82    39    83 1   
    83    40    41 1   
    84    40    43 1   
    85    41    42 1   
    86    41    84 1   
    87    41    85 1   
    88    42    86 1   
    89    42    87 1   
    90    43    44 1   
    91    43    88 1   
    92    43    89 1   
    93    44    45 1   
    94    44    90 1   
    95    44    91 1   
    96    45    92 1   
@<TRIPOS>SUBSTRUCTURE
     1 2Y2         1 TEMP              0 ****  ****    0 ROOT
