@<TRIPOS>MOLECULE
2Y3
  107   109     1     0     0
SMALL
No Charge or Current Charge


@<TRIPOS>ATOM
      1 O1          -5.1750     2.2360     1.1740 o          1 2Y3      -0.550000
      2 C1          -5.3360     1.5330     0.1900 c          1 2Y3       0.655100
      3 O2          -6.4430     1.4680    -0.6110 os         1 2Y3      -0.473100
      4 C2          -7.6580     2.1950    -0.3140 c3         1 2Y3       0.224000
      5 C5          -7.3820     3.7200    -0.3570 c3         1 2Y3      -0.109100
      6 C4          -8.2250     1.7160     1.0480 c3         1 2Y3      -0.109100
      7 C3          -8.6240     1.8030    -1.4540 c3         1 2Y3      -0.109100
      8 N1          -4.4050     0.6680    -0.3080 ns         1 2Y3      -0.492900
      9 C6          -3.1140     0.3420     0.3380 c3         1 2Y3       0.046700
     10 C7          -2.0050     0.1380    -0.7310 c          1 2Y3       0.592100
     11 O3          -2.2440    -0.0260    -1.9220 o          1 2Y3      -0.583100
     12 C8          -3.2500    -0.9020     1.2570 c3         1 2Y3      -0.051100
     13 C9          -4.3530    -0.7670     2.3020 ca         1 2Y3      -0.086300
     14 C10         -5.6210    -1.3400     2.0790 ca         1 2Y3      -0.098000
     15 C11         -4.1170    -0.0540     3.4930 ca         1 2Y3      -0.098000
     16 C12         -6.6430    -1.1970     3.0340 ca         1 2Y3      -0.108000
     17 C13         -5.1390     0.0880     4.4490 ca         1 2Y3      -0.108000
     18 C14         -6.4020    -0.4820     4.2190 ca         1 2Y3      -0.106000
     19 N2          -0.7140     0.1430    -0.2400 ns         1 2Y3      -0.501900
     20 C15          0.5110     0.0290    -1.0670 c3         1 2Y3       0.025700
     21 C16          1.5690    -0.8470    -0.3420 c          1 2Y3       0.587100
     22 O4           1.5140    -1.1050     0.8540 o          1 2Y3      -0.603100
     23 C17          1.0940     1.4280    -1.3970 c3         1 2Y3      -0.009100
     24 C18          0.1230     2.3460    -2.0970 cc         1 2Y3      -0.214300
     25 N3          -0.5700     3.3770    -1.4980 na         1 2Y3      -0.289500
     26 C19         -0.2620     2.3730    -3.4150 cd         1 2Y3       0.246900
     27 C20         -1.3440     3.9810    -2.4590 cc         1 2Y3       0.400400
     28 N4          -1.1680     3.3930    -3.6330 nd         1 2Y3      -0.673000
     29 N5           2.5890    -1.3140    -1.1470 ns         1 2Y3      -0.501900
     30 O5           5.3990    -0.6960    -1.7310 oh         1 2Y3      -0.659000
     31 N6           7.0850     0.4140     3.3250 ns         1 2Y3      -0.510900
     32 O6           5.2420     1.6960     2.9920 o          1 2Y3      -0.603100
     33 C21          3.7160    -2.1440    -0.6860 c3         1 2Y3       0.078700
     34 C22          3.9160    -3.3650    -1.6250 c3         1 2Y3      -0.086400
     35 C23          2.6660    -4.2770    -1.8530 c6         1 2Y3      -0.058700
     36 C24          2.1190    -4.8890    -0.5290 c6         1 2Y3      -0.073900
     37 C25          2.9900    -5.4060    -2.8710 c6         1 2Y3      -0.073900
     38 C26          0.8960    -5.8030    -0.7850 c6         1 2Y3      -0.073400
     39 C27          1.7640    -6.3170    -3.1270 c6         1 2Y3      -0.073400
     40 C28          1.2290    -6.9170    -1.8060 c6         1 2Y3      -0.075400
     41 C29          5.0180    -1.3030    -0.4870 c3         1 2Y3       0.156300
     42 C30          4.8590    -0.2130     0.6120 c3         1 2Y3      -0.098400
     43 C31          6.1610     0.5450     1.0380 c3         1 2Y3      -0.126700
     44 C32          6.6380     1.7140     0.1060 c3         1 2Y3      -0.070400
     45 C33          5.9620     3.1180     0.2160 c3         1 2Y3      -0.058700
     46 C34          6.6920     4.1320    -0.6960 c3         1 2Y3      -0.089100
     47 C35          4.4450     3.1290    -0.0860 c3         1 2Y3      -0.089100
     48 C36          6.1040     0.9610     2.5290 c          1 2Y3       0.596100
     49 C37          7.2150     0.6590     4.7630 c3         1 2Y3       0.096300
     50 H5          -6.8150     3.9880    -1.2560 hc         1 2Y3       0.049478
     51 H5A         -8.3250     4.2780    -0.3730 hc         1 2Y3       0.049478
     52 H5B         -6.8210     4.0600     0.5200 hc         1 2Y3       0.049478
     53 H4          -7.6230     2.0700     1.8910 hc         1 2Y3       0.049478
     54 H4A         -9.2430     2.0970     1.1920 hc         1 2Y3       0.049478
     55 H4B         -8.2650     0.6210     1.0890 hc         1 2Y3       0.049478
     56 H3          -8.7930     0.7200    -1.4670 hc         1 2Y3       0.049478
     57 H3A         -9.5950     2.2970    -1.3290 hc         1 2Y3       0.049478
     58 H3B         -8.2170     2.0970    -2.4290 hc         1 2Y3       0.049478
     59 HN1         -4.6630     0.1850    -1.1590 hn         1 2Y3       0.339500
     60 H6          -2.8050     1.1990     0.9510 h1         1 2Y3       0.092700
     61 H8          -3.4340    -1.7840     0.6310 hc         1 2Y3       0.061700
     62 H8A         -2.2920    -1.0880     1.7580 hc         1 2Y3       0.061700
     63 H10         -5.8190    -1.8880     1.1600 ha         1 2Y3       0.111000
     64 H11         -3.1450     0.3970     3.6770 ha         1 2Y3       0.111000
     65 H12         -7.6210    -1.6380     2.8530 ha         1 2Y3       0.112000
     66 H13         -4.9520     0.6430     5.3660 ha         1 2Y3       0.112000
     67 H14         -7.1930    -0.3700     4.9580 ha         1 2Y3       0.111000
     68 HN2         -0.6030     0.2380     0.7630 hn         1 2Y3       0.336500
     69 H15          0.2640    -0.4830    -2.0060 h1         1 2Y3       0.093700
     70 H17          1.4390     1.8970    -0.4660 hc         1 2Y3       0.062700
     71 H17A         1.9860     1.3080    -2.0240 hc         1 2Y3       0.062700
     72 HN3         -0.5280     3.6600    -0.5270 hn         1 2Y3       0.353000
     73 H19          0.0640     1.7200    -4.2160 h4         1 2Y3       0.032100
     74 H20         -1.9890     4.8260    -2.2450 h5         1 2Y3       0.056100
     75 HN5          2.5340    -1.0890    -2.1340 hn         1 2Y3       0.316500
     76 HO5          4.7570     0.0230    -1.9020 ho         1 2Y3       0.442000
     77 H21          3.4610    -2.5490     0.3020 h1         1 2Y3       0.085700
     78 H22          4.2640    -2.9970    -2.5980 hc         1 2Y3       0.053700
     79 H22A         4.7370    -3.9720    -1.2250 hc         1 2Y3       0.053700
     80 H23          1.8830    -3.6430    -2.2920 hc         1 2Y3       0.043700
     81 H24          2.9110    -5.4630    -0.0280 hc         1 2Y3       0.040450
     82 H24A         1.8220    -4.0930     0.1670 hc         1 2Y3       0.040450
     83 H25          3.3230    -4.9690    -3.8230 hc         1 2Y3       0.040450
     84 H25A         3.8270    -6.0150    -2.5000 hc         1 2Y3       0.040450
     85 H26          0.5620    -6.2520     0.1600 hc         1 2Y3       0.039700
     86 H26A         0.0560    -5.2000    -1.1570 hc         1 2Y3       0.039700
     87 H27          0.9700    -5.7380    -3.6200 hc         1 2Y3       0.039700
     88 H27A         2.0370    -7.1240    -3.8200 hc         1 2Y3       0.039700
     89 H28          1.9770    -7.6000    -1.3790 hc         1 2Y3       0.039200
     90 H28A         0.3330    -7.5210    -2.0060 hc         1 2Y3       0.039200
     91 H29          5.8070    -1.9950    -0.1580 h1         1 2Y3       0.072700
     92 H30          4.0780     0.4920     0.3210 hc         1 2Y3       0.068200
     93 H30A         4.4690    -0.7230     1.5030 hc         1 2Y3       0.068200
     94 H31          6.9660    -0.1980     0.9690 hc         1 2Y3       0.048700
     95 H32          7.7050     1.8600     0.3190 hc         1 2Y3       0.047200
     96 H32A         6.6050     1.3910    -0.9390 hc         1 2Y3       0.047200
     97 H33          6.0950     3.4810     1.2420 hc         1 2Y3       0.050700
     98 H34          6.5960     3.8500    -1.7510 hc         1 2Y3       0.033867
     99 H34A         6.2760     5.1390    -0.5710 hc         1 2Y3       0.033867
    100 H34B         7.7600     4.1800    -0.4500 hc         1 2Y3       0.033867
    101 H35          4.2280     2.6220    -1.0340 hc         1 2Y3       0.033867
    102 H35A         3.8800     2.6450     0.7170 hc         1 2Y3       0.033867
    103 H35B         4.0720     4.1580    -0.1600 hc         1 2Y3       0.033867
    104 H55          7.7610    -0.1910     2.8730 hn         1 2Y3       0.312500
    105 H37          7.3550     1.7330     4.9430 h1         1 2Y3       0.039367
    106 H37A         6.3080     0.3180     5.2790 h1         1 2Y3       0.039367
    107 H58          8.0810     0.1100     5.1520 h1         1 2Y3       0.039367
@<TRIPOS>BOND
     1     1     2 2   
     2     2     3 1   
     3     2     8 1   
     4     3     4 1   
     5     4     5 1   
     6     4     6 1   
     7     4     7 1   
     8     5    50 1   
     9     5    51 1   
    10     5    52 1   
    11     6    53 1   
    12     6    54 1   
    13     6    55 1   
    14     7    56 1   
    15     7    57 1   
    16     7    58 1   
    17     8     9 1   
    18     8    59 1   
    19     9    10 1   
    20     9    12 1   
    21     9    60 1   
    22    10    11 2   
    23    10    19 1   
    24    12    13 1   
    25    12    61 1   
    26    12    62 1   
    27    13    14 ar  
    28    13    15 ar  
    29    14    16 ar  
    30    14    63 1   
    31    15    17 ar  
    32    15    64 1   
    33    16    18 ar  
    34    16    65 1   
    35    17    18 ar  
    36    17    66 1   
    37    18    67 1   
    38    19    20 1   
    39    19    68 1   
    40    20    21 1   
    41    20    23 1   
    42    20    69 1   
    43    21    22 2   
    44    21    29 1   
    45    23    24 1   
    46    23    70 1   
    47    23    71 1   
    48    24    25 1   
    49    24    26 2   
    50    25    27 1   
    51    25    72 1   
    52    26    28 1   
    53    26    73 1   
    54    27    28 2   
    55    27    74 1   
    56    29    33 1   
    57    29    75 1   
    58    30    41 1   
    59    30    76 1   
    60    31    48 1   
    61    31    49 1   
    62    31   104 1   
    63    32    48 2   
    64    33    34 1   
    65    33    41 1   
    66    33    77 1   
    67    34    35 1   
    68    34    78 1   
    69    34    79 1   
    70    35    36 1   
    71    35    37 1   
    72    35    80 1   
    73    36    38 1   
    74    36    81 1   
    75    36    82 1   
    76    37    39 1   
    77    37    83 1   
    78    37    84 1   
    79    38    40 1   
    80    38    85 1   
    81    38    86 1   
    82    39    40 1   
    83    39    87 1   
    84    39    88 1   
    85    40    89 1   
    86    40    90 1   
    87    41    42 1   
    88    41    91 1   
    89    42    43 1   
    90    42    92 1   
    91    42    93 1   
    92    43    44 1   
    93    43    48 1   
    94    43    94 1   
    95    44    45 1   
    96    44    95 1   
    97    44    96 1   
    98    45    46 1   
    99    45    47 1   
   100    45    97 1   
   101    46    98 1   
   102    46    99 1   
   103    46   100 1   
   104    47   101 1   
   105    47   102 1   
   106    47   103 1   
   107    49   105 1   
   108    49   106 1   
   109    49   107 1   
@<TRIPOS>SUBSTRUCTURE
     1 2Y3         1 TEMP              0 ****  ****    0 ROOT
