@<TRIPOS>MOLECULE
2Y3
  107   109     1     0     0
SMALL
abcg2


@<TRIPOS>ATOM
      1 O1          -4.8600     1.8230     1.4270 o          1 2Y3      -0.550000
      2 C1          -5.1220     1.4330     0.3090 c          1 2Y3       0.655100
      3 O2          -6.2250     1.7210    -0.3790 os         1 2Y3      -0.473100
      4 C2          -7.3280     2.4690     0.1960 c3         1 2Y3       0.224000
      5 C5          -6.9100     3.8950     0.5350 c3         1 2Y3      -0.109100
      6 C4          -7.9070     1.7430     1.4050 c3         1 2Y3      -0.109100
      7 C3          -8.3560     2.4890    -0.9290 c3         1 2Y3      -0.109100
      8 N1          -4.3070     0.6510    -0.4370 ns         1 2Y3      -0.492900
      9 C6          -3.1400     0.0200     0.1100 c3         1 2Y3       0.046700
     10 C7          -1.9850     0.1230    -0.8790 c          1 2Y3       0.592100
     11 O3          -2.1630     0.0320    -2.0810 o          1 2Y3      -0.583100
     12 C8          -3.3890    -1.4720     0.4210 c3         1 2Y3      -0.051100
     13 C9          -4.5020    -1.6470     1.4120 ca         1 2Y3      -0.086300
     14 C10         -5.8140    -1.8330     0.9870 ca         1 2Y3      -0.098000
     15 C11         -4.2470    -1.5770     2.7800 ca         1 2Y3      -0.098000
     16 C12         -6.8500    -1.9440     1.9050 ca         1 2Y3      -0.108000
     17 C13         -5.2780    -1.6900     3.7010 ca         1 2Y3      -0.108000
     18 C14         -6.5850    -1.8690     3.2660 ca         1 2Y3      -0.106000
     19 N2          -0.7800     0.2610    -0.2990 ns         1 2Y3      -0.501900
     20 C15          0.4680     0.2400    -1.0120 c3         1 2Y3       0.025700
     21 C16          1.4580    -0.6270    -0.2350 c          1 2Y3       0.587100
     22 O4           1.3490    -0.7770     0.9710 o          1 2Y3      -0.603100
     23 C17          1.0560     1.6570    -1.1850 c3         1 2Y3      -0.009100
     24 C18          0.1310     2.5660    -1.9090 cc         1 2Y3      -0.214300
     25 N3          -0.9260     3.2030    -1.3210 na         1 2Y3      -0.289500
     26 C19          0.0520     2.9160    -3.2280 cd         1 2Y3       0.246900
     27 C20         -1.5830     3.8870    -2.2780 cc         1 2Y3       0.400400
     28 N4          -1.0170     3.7370    -3.4480 nd         1 2Y3      -0.673000
     29 N5           2.4470    -1.1390    -0.9810 ns         1 2Y3      -0.501900
     30 O5           5.2660    -0.7750    -1.6400 oh         1 2Y3      -0.659000
     31 N6           6.9790     1.4200     3.1750 ns         1 2Y3      -0.510900
     32 O6           4.8410     1.8760     2.6670 o          1 2Y3      -0.603100
     33 C21          3.5100    -1.9930    -0.4760 c3         1 2Y3       0.078700
     34 C22          3.6420    -3.2390    -1.3480 c3         1 2Y3      -0.086400
     35 C23          2.3620    -4.0610    -1.5030 c6         1 2Y3      -0.058700
     36 C24          1.7820    -4.5210    -0.1660 c6         1 2Y3      -0.073900
     37 C25          2.6210    -5.2710    -2.4040 c6         1 2Y3      -0.073900
     38 C26          0.5320    -5.3750    -0.3530 c6         1 2Y3      -0.073400
     39 C27          1.3710    -6.1250    -2.5950 c6         1 2Y3      -0.073400
     40 C28          0.7990    -6.5740    -1.2560 c6         1 2Y3      -0.075400
     41 C29          4.8350    -1.2170    -0.3680 c3         1 2Y3       0.156300
     42 C30          4.7400    -0.0970     0.6650 c3         1 2Y3      -0.098400
     43 C31          6.0830     0.4610     1.1460 c3         1 2Y3      -0.126700
     44 C32          6.9310     1.2500     0.1240 c3         1 2Y3      -0.070400
     45 C33          6.5740     2.7140    -0.1570 c3         1 2Y3      -0.058700
     46 C34          7.5870     3.2850    -1.1470 c3         1 2Y3      -0.089100
     47 C35          5.1550     2.9400    -0.6700 c3         1 2Y3      -0.089100
     48 C36          5.8920     1.3090     2.3960 c          1 2Y3       0.596100
     49 C37          7.0110     2.2520     4.3540 c3         1 2Y3       0.096300
     50 H5          -6.4600     4.3880    -0.3290 hc         1 2Y3       0.049478
     51 H5A         -7.7950     4.4690     0.8160 hc         1 2Y3       0.049478
     52 H5B         -6.2100     3.9390     1.3660 hc         1 2Y3       0.049478
     53 H4          -7.2170     1.7130     2.2450 hc         1 2Y3       0.049478
     54 H4A         -8.8130     2.2580     1.7260 hc         1 2Y3       0.049478
     55 H4B         -8.1760     0.7170     1.1510 hc         1 2Y3       0.049478
     56 H3          -8.6530     1.4790    -1.2150 hc         1 2Y3       0.049478
     57 H3A         -9.2500     3.0190    -0.6000 hc         1 2Y3       0.049478
     58 H3B         -7.9720     2.9990    -1.8140 hc         1 2Y3       0.049478
     59 HN1         -4.6310     0.3330    -1.3370 hn         1 2Y3       0.339500
     60 H6          -2.8860     0.5340     1.0380 h1         1 2Y3       0.092700
     61 H8          -3.6260    -1.9900    -0.5120 hc         1 2Y3       0.061700
     62 H8A         -2.4650    -1.9110     0.8060 hc         1 2Y3       0.061700
     63 H10         -6.0290    -1.9000    -0.0730 ha         1 2Y3       0.111000
     64 H11         -3.2290    -1.4370     3.1280 ha         1 2Y3       0.111000
     65 H12         -7.8640    -2.0890     1.5580 ha         1 2Y3       0.112000
     66 H13         -5.0620    -1.6380     4.7610 ha         1 2Y3       0.112000
     67 H14         -7.3900    -1.9550     3.9830 ha         1 2Y3       0.111000
     68 HN2         -0.7210     0.3030     0.7080 hn         1 2Y3       0.336500
     69 H15          0.2890    -0.1820    -2.0020 h1         1 2Y3       0.093700
     70 H17          1.3090     2.0650    -0.2020 hc         1 2Y3       0.062700
     71 H17A         1.9880     1.5870    -1.7480 hc         1 2Y3       0.062700
     72 HN3         -1.1660     3.1800    -0.3430 hn         1 2Y3       0.353000
     73 H19          0.7150     2.6120    -4.0250 h4         1 2Y3       0.032100
     74 H20         -2.4580     4.4810    -2.0650 h5         1 2Y3       0.056100
     75 HN5          2.3890    -1.0220    -1.9820 hn         1 2Y3       0.316500
     76 HO5          4.7430    -0.0080    -1.8930 ho         1 2Y3       0.442000
     77 H21          3.2330    -2.2940     0.5350 h1         1 2Y3       0.085700
     78 H22          4.0030    -2.9500    -2.3400 hc         1 2Y3       0.053700
     79 H22A         4.4220    -3.8680    -0.9070 hc         1 2Y3       0.053700
     80 H23          1.6070    -3.4380    -2.0000 hc         1 2Y3       0.043700
     81 H24          2.5420    -5.1020     0.3730 hc         1 2Y3       0.040450
     82 H24A         1.5380    -3.6660     0.4690 hc         1 2Y3       0.040450
     83 H25          3.0010    -4.9370    -3.3740 hc         1 2Y3       0.040450
     84 H25A         3.4120    -5.8850    -1.9550 hc         1 2Y3       0.040450
     85 H26          0.1560    -5.7050     0.6190 hc         1 2Y3       0.039700
     86 H26A        -0.2580    -4.7600    -0.7980 hc         1 2Y3       0.039700
     87 H27          0.6150    -5.5400    -3.1310 hc         1 2Y3       0.039700
     88 H27A         1.6000    -6.9890    -3.2240 hc         1 2Y3       0.039700
     89 H28          1.5110    -7.2470    -0.7640 hc         1 2Y3       0.039200
     90 H28A        -0.1190    -7.1480    -1.4070 hc         1 2Y3       0.039200
     91 H29          5.5910    -1.9370    -0.0350 h1         1 2Y3       0.072700
     92 H30          4.0920     0.6970     0.2890 hc         1 2Y3       0.068200
     93 H30A         4.2190    -0.5040     1.5340 hc         1 2Y3       0.068200
     94 H31          6.6910    -0.4050     1.4350 hc         1 2Y3       0.048700
     95 H32          7.9660     1.2390     0.4800 hc         1 2Y3       0.047200
     96 H32A         6.9430     0.6940    -0.8150 hc         1 2Y3       0.047200
     97 H33          6.6800     3.2790     0.7770 hc         1 2Y3       0.050700
     98 H34          7.5170     2.7810    -2.1140 hc         1 2Y3       0.033867
     99 H34A         7.4150     4.3490    -1.3160 hc         1 2Y3       0.033867
    100 H34B         8.6110     3.1680    -0.7870 hc         1 2Y3       0.033867
    101 H35          4.9380     2.3130    -1.5380 hc         1 2Y3       0.033867
    102 H35A         4.4050     2.7380     0.0930 hc         1 2Y3       0.033867
    103 H35B         5.0240     3.9780    -0.9830 hc         1 2Y3       0.033867
    104 H55          7.8170     0.9260     2.9190 hn         1 2Y3       0.312500
    105 H37          6.7720     3.2910     4.1210 h1         1 2Y3       0.039367
    106 H37A         6.3100     1.9040     5.1150 h1         1 2Y3       0.039367
    107 H58          8.0120     2.2180     4.7740 h1         1 2Y3       0.039367
@<TRIPOS>BOND
     1     1     2 2   
     2     2     3 1   
     3     2     8 1   
     4     3     4 1   
     5     4     5 1   
     6     4     6 1   
     7     4     7 1   
     8     5    50 1   
     9     5    51 1   
    10     5    52 1   
    11     6    53 1   
    12     6    54 1   
    13     6    55 1   
    14     7    56 1   
    15     7    57 1   
    16     7    58 1   
    17     8     9 1   
    18     8    59 1   
    19     9    10 1   
    20     9    12 1   
    21     9    60 1   
    22    10    11 2   
    23    10    19 1   
    24    12    13 1   
    25    12    61 1   
    26    12    62 1   
    27    13    14 ar  
    28    13    15 ar  
    29    14    16 ar  
    30    14    63 1   
    31    15    17 ar  
    32    15    64 1   
    33    16    18 ar  
    34    16    65 1   
    35    17    18 ar  
    36    17    66 1   
    37    18    67 1   
    38    19    20 1   
    39    19    68 1   
    40    20    21 1   
    41    20    23 1   
    42    20    69 1   
    43    21    22 2   
    44    21    29 1   
    45    23    24 1   
    46    23    70 1   
    47    23    71 1   
    48    24    25 1   
    49    24    26 2   
    50    25    27 1   
    51    25    72 1   
    52    26    28 1   
    53    26    73 1   
    54    27    28 2   
    55    27    74 1   
    56    29    33 1   
    57    29    75 1   
    58    30    41 1   
    59    30    76 1   
    60    31    48 1   
    61    31    49 1   
    62    31   104 1   
    63    32    48 2   
    64    33    34 1   
    65    33    41 1   
    66    33    77 1   
    67    34    35 1   
    68    34    78 1   
    69    34    79 1   
    70    35    36 1   
    71    35    37 1   
    72    35    80 1   
    73    36    38 1   
    74    36    81 1   
    75    36    82 1   
    76    37    39 1   
    77    37    83 1   
    78    37    84 1   
    79    38    40 1   
    80    38    85 1   
    81    38    86 1   
    82    39    40 1   
    83    39    87 1   
    84    39    88 1   
    85    40    89 1   
    86    40    90 1   
    87    41    42 1   
    88    41    91 1   
    89    42    43 1   
    90    42    92 1   
    91    42    93 1   
    92    43    44 1   
    93    43    48 1   
    94    43    94 1   
    95    44    45 1   
    96    44    95 1   
    97    44    96 1   
    98    45    46 1   
    99    45    47 1   
   100    45    97 1   
   101    46    98 1   
   102    46    99 1   
   103    46   100 1   
   104    47   101 1   
   105    47   102 1   
   106    47   103 1   
   107    49   105 1   
   108    49   106 1   
   109    49   107 1   
@<TRIPOS>SUBSTRUCTURE
     1 2Y3         1 TEMP              0 ****  ****    0 ROOT
