@<TRIPOS>MOLECULE
2Y4
   94    96     1     0     0
SMALL
abcg2


@<TRIPOS>ATOM
      1 O1           9.0120     0.2500     2.0010 os         1 2Y4      -0.444000
      2 C4           7.7920     0.1090     2.6860 c6         1 2Y4       0.143100
      3 C3           6.6960    -0.4480     1.7930 c6         1 2Y4       0.058500
      4 N1           6.5560     0.3740     0.6020 n          1 2Y4      -0.406800
      5 C2           7.8220     0.5960    -0.0810 c6         1 2Y4       0.058500
      6 C1           8.8570     1.1130     0.8980 c6         1 2Y4       0.143100
      7 C5           5.4180     0.4120    -0.1640 c          1 2Y4       0.660100
      8 O2           5.4340     0.8210    -1.3190 o          1 2Y4      -0.639100
      9 N2           4.2590     0.0310     0.4410 ns         1 2Y4      -0.506900
     10 C6           3.0620    -0.2100    -0.3130 c3         1 2Y4       0.043700
     11 C7           1.8610     0.3210     0.4590 c          1 2Y4       0.598100
     12 O3           1.8440     0.3330     1.6810 o          1 2Y4      -0.612100
     13 C8           2.8520    -1.7150    -0.6020 c3         1 2Y4      -0.053100
     14 C9           4.0690    -2.3090    -1.2450 ca         1 2Y4      -0.083300
     15 C10          4.2650    -2.2140    -2.6200 ca         1 2Y4      -0.100000
     16 C11          5.0620    -2.9020    -0.4700 ca         1 2Y4      -0.100000
     17 C12          5.4260    -2.6930    -3.2080 ca         1 2Y4      -0.107000
     18 C13          6.2310    -3.3740    -1.0510 ca         1 2Y4      -0.107000
     19 C14          6.4170    -3.2710    -2.4230 ca         1 2Y4      -0.106000
     20 N3           0.8380     0.7190    -0.3130 ns         1 2Y4      -0.488900
     21 C15         -0.4230     1.1930     0.1950 c3         1 2Y4       0.028700
     22 C16         -1.5510     0.2880    -0.2910 c          1 2Y4       0.591100
     23 O4          -1.4990    -0.2820    -1.3660 o          1 2Y4      -0.582100
     24 C17         -0.7000     2.6390    -0.2390 c3         1 2Y4      -0.085400
     25 C18          0.3410     3.6200     0.2810 c3         1 2Y4      -0.078400
     26 C19          0.0450     5.0590    -0.1280 c3         1 2Y4      -0.073400
     27 C20          1.0890     6.0380     0.3890 c3         1 2Y4      -0.089100
     28 F1          -3.8260     1.7000    -1.6810 f          1 2Y4      -0.105500
     29 F2          -4.8500    -0.0940    -2.3820 f          1 2Y4      -0.105500
     30 N4          -2.6060     0.2370     0.5450 ns         1 2Y4      -0.515900
     31 N5          -6.0430     3.0080    -2.1390 ns         1 2Y4      -0.486900
     32 O5          -5.1700     1.4400     0.8270 oh         1 2Y4      -0.638000
     33 O6          -7.2780     1.1500    -1.7860 o          1 2Y4      -0.573100
     34 C21         -3.8120    -0.5330     0.3110 c3         1 2Y4       0.084700
     35 C22         -4.1120    -1.3540     1.5690 c3         1 2Y4      -0.086400
     36 C23         -5.3220    -2.2850     1.5060 c6         1 2Y4      -0.059700
     37 C24         -5.4100    -3.0850     2.8080 c6         1 2Y4      -0.073900
     38 C25         -5.2870    -3.2350     0.3090 c6         1 2Y4      -0.073900
     39 C26         -6.5910    -4.0480     2.8160 c6         1 2Y4      -0.072900
     40 C27         -6.4680    -4.2020     0.3150 c6         1 2Y4      -0.072900
     41 C28         -6.5440    -4.9890     1.6180 c6         1 2Y4      -0.075400
     42 C29         -4.9900     0.3790    -0.0700 c3         1 2Y4       0.117300
     43 C30         -4.9350     0.9290    -1.4930 c3         1 2Y4       0.069000
     44 C31         -6.2050     1.7280    -1.8280 c          1 2Y4       0.566100
     45 C32         -7.1640     3.8550    -2.4830 c3         1 2Y4       0.093300
     46 H4           7.9550    -0.5730     3.5220 h1         1 2Y4       0.053950
     47 H4A          7.4660     1.0760     3.0950 h1         1 2Y4       0.053950
     48 H3           5.7860    -0.4560     2.3900 h1         1 2Y4       0.055700
     49 H3A          6.9240    -1.4850     1.5190 h1         1 2Y4       0.055700
     50 H2           7.6920     1.3280    -0.8740 h1         1 2Y4       0.055700
     51 H2A          8.1750    -0.3360    -0.5410 h1         1 2Y4       0.055700
     52 H1           8.5680     2.1180     1.2370 h1         1 2Y4       0.053950
     53 H1A          9.8240     1.1900     0.4000 h1         1 2Y4       0.053950
     54 HN2          4.2550    -0.3010     1.3890 hn         1 2Y4       0.325500
     55 H6           3.1520     0.3180    -1.2620 h1         1 2Y4       0.098700
     56 H8           2.6330    -2.2290     0.3380 hc         1 2Y4       0.061200
     57 H8A          1.9770    -1.8330    -1.2460 hc         1 2Y4       0.061200
     58 H10          3.5010    -1.7540    -3.2360 ha         1 2Y4       0.108500
     59 H11          4.9200    -2.9950     0.6010 ha         1 2Y4       0.108500
     60 H12          5.5610    -2.6150    -4.2790 ha         1 2Y4       0.113000
     61 H13          6.9960    -3.8290    -0.4330 ha         1 2Y4       0.113000
     62 H14          7.3250    -3.6430    -2.8790 ha         1 2Y4       0.113000
     63 HN3          0.9460     0.6820    -1.3160 hn         1 2Y4       0.333500
     64 H15         -0.3660     1.1600     1.2850 h1         1 2Y4       0.088700
     65 H17         -0.7490     2.6870    -1.3320 hc         1 2Y4       0.051200
     66 H17A        -1.6880     2.9270     0.1300 hc         1 2Y4       0.051200
     67 H18          0.3890     3.5530     1.3730 hc         1 2Y4       0.048700
     68 H18A         1.3310     3.3380    -0.0880 hc         1 2Y4       0.048700
     69 H19         -0.0080     5.1210    -1.2190 hc         1 2Y4       0.035200
     70 H19A        -0.9430     5.3460     0.2420 hc         1 2Y4       0.035200
     71 H20          1.1360     6.0250     1.4800 hc         1 2Y4       0.034367
     72 H20A         2.0840     5.7890     0.0150 hc         1 2Y4       0.034367
     73 H20B         0.8670     7.0600     0.0800 hc         1 2Y4       0.034367
     74 HN4         -2.4750     0.6090     1.4750 hn         1 2Y4       0.313500
     75 HO5         -4.3570     1.9570     0.8770 ho         1 2Y4       0.446000
     76 H21         -3.6110    -1.2180    -0.5140 h1         1 2Y4       0.102700
     77 H22         -3.2200    -1.9530     1.7770 hc         1 2Y4       0.049200
     78 H22A        -4.2340    -0.6770     2.4210 hc         1 2Y4       0.049200
     79 H23         -6.2370    -1.6810     1.4380 hc         1 2Y4       0.054700
     80 H24         -4.4800    -3.6520     2.9340 hc         1 2Y4       0.039950
     81 H24A        -5.4740    -2.4000     3.6590 hc         1 2Y4       0.039950
     82 H25         -5.2860    -2.6780    -0.6330 hc         1 2Y4       0.039950
     83 H25A        -4.3480    -3.8020     0.3320 hc         1 2Y4       0.039950
     84 H26         -6.6030    -4.6170     3.7490 hc         1 2Y4       0.041450
     85 H26A        -7.5260    -3.4760     2.7900 hc         1 2Y4       0.041450
     86 H27         -7.3960    -3.6360     0.1820 hc         1 2Y4       0.041450
     87 H27A        -6.3950    -4.8810    -0.5380 hc         1 2Y4       0.041450
     88 H28         -5.6650    -5.6380     1.7010 hc         1 2Y4       0.039200
     89 H28A        -7.4170    -5.6460     1.6140 hc         1 2Y4       0.039200
     90 H29         -5.9060    -0.2140    -0.0280 h1         1 2Y4       0.120700
     91 H32         -7.6680     3.5040    -3.3840 h1         1 2Y4       0.045700
     92 H32A        -7.8910     3.8970    -1.6730 h1         1 2Y4       0.045700
     93 H51         -6.7900     4.8570    -2.6650 h1         1 2Y4       0.045700
     94 H48         -5.1190     3.4060    -2.1700 hn         1 2Y4       0.332500
@<TRIPOS>BOND
     1     1     2 1   
     2     1     6 1   
     3     2     3 1   
     4     2    46 1   
     5     2    47 1   
     6     3     4 1   
     7     3    48 1   
     8     3    49 1   
     9     4     5 1   
    10     4     7 1   
    11     5     6 1   
    12     5    50 1   
    13     5    51 1   
    14     6    52 1   
    15     6    53 1   
    16     7     8 2   
    17     7     9 1   
    18     9    10 1   
    19     9    54 1   
    20    10    11 1   
    21    10    13 1   
    22    10    55 1   
    23    11    12 2   
    24    11    20 1   
    25    13    14 1   
    26    13    56 1   
    27    13    57 1   
    28    14    15 ar  
    29    14    16 ar  
    30    15    17 ar  
    31    15    58 1   
    32    16    18 ar  
    33    16    59 1   
    34    17    19 ar  
    35    17    60 1   
    36    18    19 ar  
    37    18    61 1   
    38    19    62 1   
    39    20    21 1   
    40    20    63 1   
    41    21    22 1   
    42    21    24 1   
    43    21    64 1   
    44    22    23 2   
    45    22    30 1   
    46    24    25 1   
    47    24    65 1   
    48    24    66 1   
    49    25    26 1   
    50    25    67 1   
    51    25    68 1   
    52    26    27 1   
    53    26    69 1   
    54    26    70 1   
    55    27    71 1   
    56    27    72 1   
    57    27    73 1   
    58    28    43 1   
    59    29    43 1   
    60    30    34 1   
    61    30    74 1   
    62    31    44 1   
    63    31    45 1   
    64    31    94 1   
    65    32    42 1   
    66    32    75 1   
    67    33    44 2   
    68    34    35 1   
    69    34    42 1   
    70    34    76 1   
    71    35    36 1   
    72    35    77 1   
    73    35    78 1   
    74    36    37 1   
    75    36    38 1   
    76    36    79 1   
    77    37    39 1   
    78    37    80 1   
    79    37    81 1   
    80    38    40 1   
    81    38    82 1   
    82    38    83 1   
    83    39    41 1   
    84    39    84 1   
    85    39    85 1   
    86    40    41 1   
    87    40    86 1   
    88    40    87 1   
    89    41    88 1   
    90    41    89 1   
    91    42    43 1   
    92    42    90 1   
    93    43    44 1   
    94    45    91 1   
    95    45    92 1   
    96    45    93 1   
@<TRIPOS>SUBSTRUCTURE
     1 2Y4         1 TEMP              0 ****  ****    0 ROOT
