@<TRIPOS>MOLECULE
2Y4
   94    96     1     0     0
SMALL
No Charge or Current Charge


@<TRIPOS>ATOM
      1 O1           9.3470     0.2740     1.8870 os         1 2Y4      -0.444000
      2 C4           8.1550     0.4070     2.6810 c6         1 2Y4       0.143100
      3 C3           6.8960     0.0540     1.8480 c6         1 2Y4       0.058500
      4 N1           6.8610     0.6220     0.4570 n          1 2Y4      -0.406800
      5 C2           8.1870     0.8770    -0.1930 c6         1 2Y4       0.058500
      6 C1           9.3570     1.1850     0.7750 c6         1 2Y4       0.143100
      7 C5           5.7030     0.5550    -0.3440 c          1 2Y4       0.660100
      8 O2           5.7110     0.8670    -1.5250 o          1 2Y4      -0.639100
      9 N2           4.5600     0.1270     0.2880 ns         1 2Y4      -0.506900
     10 C6           3.2660    -0.1470    -0.3790 c3         1 2Y4       0.043700
     11 C7           2.0830     0.3590     0.4950 c          1 2Y4       0.598100
     12 O3           2.2060     0.6720     1.6730 o          1 2Y4      -0.612100
     13 C8           3.1210    -1.6580    -0.7040 c3         1 2Y4      -0.053100
     14 C9           4.2900    -2.2210    -1.5070 ca         1 2Y4      -0.083300
     15 C10          4.3230    -2.0770    -2.9070 ca         1 2Y4      -0.100000
     16 C11          5.3510    -2.8790    -0.8540 ca         1 2Y4      -0.100000
     17 C12          5.4050    -2.5840    -3.6470 ca         1 2Y4      -0.107000
     18 C13          6.4350    -3.3840    -1.5930 ca         1 2Y4      -0.107000
     19 C14          6.4620    -3.2370    -2.9900 ca         1 2Y4      -0.106000
     20 N3           0.8660     0.4280    -0.1540 ns         1 2Y4      -0.488900
     21 C15         -0.4050     0.8810     0.4580 c3         1 2Y4       0.028700
     22 C16         -1.5820    -0.0100    -0.0350 c          1 2Y4       0.591100
     23 O4          -1.4820    -0.7810    -0.9820 o          1 2Y4      -0.582100
     24 C17         -0.6750     2.3810     0.1590 c3         1 2Y4      -0.085400
     25 C18          0.4000     3.3520     0.7030 c3         1 2Y4      -0.078400
     26 C19          0.0520     4.8360     0.4550 c3         1 2Y4      -0.073400
     27 C20          1.1240     5.8040     0.9910 c3         1 2Y4      -0.089100
     28 F1          -3.7420     1.7810    -1.5650 f          1 2Y4      -0.105500
     29 F2          -4.2900    -0.1290    -2.4430 f          1 2Y4      -0.105500
     30 N4          -2.7570     0.1260     0.6790 ns         1 2Y4      -0.515900
     31 N5          -5.9670     2.8650    -2.5560 ns         1 2Y4      -0.486900
     32 O5          -5.4290     1.4010     0.6470 oh         1 2Y4      -0.638000
     33 O6          -6.9910     0.8380    -2.6370 o          1 2Y4      -0.573100
     34 C21         -4.0060    -0.6040     0.4010 c3         1 2Y4       0.084700
     35 C22         -4.4640    -1.3180     1.7030 c3         1 2Y4      -0.086400
     36 C23         -5.7280    -2.2330     1.6120 c6         1 2Y4      -0.059700
     37 C24         -6.0500    -2.8560     3.0000 c6         1 2Y4      -0.073900
     38 C25         -5.5850    -3.3550     0.5400 c6         1 2Y4      -0.073900
     39 C26         -7.3080    -3.7570     2.9460 c6         1 2Y4      -0.072900
     40 C27         -6.8400    -4.2610     0.4910 c6         1 2Y4      -0.072900
     41 C28         -7.1540    -4.8670     1.8790 c6         1 2Y4      -0.075400
     42 C29         -5.1040     0.3140    -0.2450 c3         1 2Y4       0.117300
     43 C30         -4.7520     0.8760    -1.6590 c3         1 2Y4       0.069000
     44 C31         -6.0120     1.5040    -2.3190 c          1 2Y4       0.566100
     45 C32         -7.0500     3.6340    -3.1720 c3         1 2Y4       0.093300
     46 H4           8.2250    -0.2570     3.5540 h1         1 2Y4       0.053950
     47 H4A          8.0820     1.4410     3.0480 h1         1 2Y4       0.053950
     48 H3           6.0190     0.4000     2.4120 h1         1 2Y4       0.055700
     49 H3A          6.8230    -1.0410     1.7750 h1         1 2Y4       0.055700
     50 H2           8.0920     1.7160    -0.8970 h1         1 2Y4       0.055700
     51 H2A          8.4520    -0.0090    -0.7870 h1         1 2Y4       0.055700
     52 H1           9.2700     2.2150     1.1500 h1         1 2Y4       0.053950
     53 H1A         10.3150     1.0980     0.2430 h1         1 2Y4       0.053950
     54 HN2          4.6310    -0.0530     1.2800 hn         1 2Y4       0.325500
     55 H6           3.2240     0.4190    -1.3190 h1         1 2Y4       0.098700
     56 H8           3.0160    -2.2120     0.2370 hc         1 2Y4       0.061200
     57 H8A          2.1860    -1.8230    -1.2530 hc         1 2Y4       0.061200
     58 H10          3.5120    -1.5680    -3.4230 ha         1 2Y4       0.108500
     59 H11          5.3410    -2.9930     0.2280 ha         1 2Y4       0.108500
     60 H12          5.4260    -2.4690    -4.7280 ha         1 2Y4       0.113000
     61 H13          7.2530    -3.8880    -1.0830 ha         1 2Y4       0.113000
     62 H14          7.3010    -3.6280    -3.5630 ha         1 2Y4       0.113000
     63 HN3          0.8420     0.1160    -1.1190 hn         1 2Y4       0.333500
     64 H15         -0.3480     0.7420     1.5460 h1         1 2Y4       0.088700
     65 H17         -0.7660     2.5180    -0.9260 hc         1 2Y4       0.051200
     66 H17A        -1.6430     2.6630     0.5900 hc         1 2Y4       0.051200
     67 H18          0.5250     3.1860     1.7800 hc         1 2Y4       0.048700
     68 H18A         1.3650     3.1340     0.2300 hc         1 2Y4       0.048700
     69 H19         -0.0750     5.0050    -0.6210 hc         1 2Y4       0.035200
     70 H19A        -0.9080     5.0700     0.9320 hc         1 2Y4       0.035200
     71 H20          1.2500     5.6830     2.0740 hc         1 2Y4       0.034367
     72 H20A         2.0910     5.6200     0.5060 hc         1 2Y4       0.034367
     73 H20B         0.8340     6.8430     0.7930 hc         1 2Y4       0.034367
     74 HN4         -2.7300     0.7450     1.4810 hn         1 2Y4       0.313500
     75 HO5         -4.6200     1.9460     0.7480 ho         1 2Y4       0.446000
     76 H21         -3.7780    -1.3950    -0.3250 h1         1 2Y4       0.102700
     77 H22         -3.6210    -1.9210     2.0650 hc         1 2Y4       0.049200
     78 H22A        -4.6320    -0.5550     2.4740 hc         1 2Y4       0.049200
     79 H23         -6.5730    -1.5880     1.3350 hc         1 2Y4       0.054700
     80 H24         -5.1930    -3.4460     3.3530 hc         1 2Y4       0.039950
     81 H24A        -6.2050    -2.0600     3.7410 hc         1 2Y4       0.039950
     82 H25         -5.4290    -2.9190    -0.4550 hc         1 2Y4       0.039950
     83 H25A        -4.6970    -3.9660     0.7560 hc         1 2Y4       0.039950
     84 H26         -7.4850    -4.2100     3.9310 hc         1 2Y4       0.041450
     85 H26A        -8.1930    -3.1460     2.7200 hc         1 2Y4       0.041450
     86 H27         -7.7020    -3.6780     0.1380 hc         1 2Y4       0.041450
     87 H27A        -6.6890    -5.0670    -0.2410 hc         1 2Y4       0.041450
     88 H28         -6.3490    -5.5550     2.1740 hc         1 2Y4       0.039200
     89 H28A        -8.0740    -5.4650     1.8270 hc         1 2Y4       0.039200
     90 H29         -5.9950    -0.3130    -0.3900 h1         1 2Y4       0.120700
     91 H32         -7.2490     3.2490    -4.1810 h1         1 2Y4       0.045700
     92 H32A        -7.9590     3.5470    -2.5630 h1         1 2Y4       0.045700
     93 H51         -6.7600     4.6900    -3.2390 h1         1 2Y4       0.045700
     94 H48         -5.1220     3.3500    -2.2750 hn         1 2Y4       0.332500
@<TRIPOS>BOND
     1     1     2 1   
     2     1     6 1   
     3     2     3 1   
     4     2    46 1   
     5     2    47 1   
     6     3     4 1   
     7     3    48 1   
     8     3    49 1   
     9     4     5 1   
    10     4     7 1   
    11     5     6 1   
    12     5    50 1   
    13     5    51 1   
    14     6    52 1   
    15     6    53 1   
    16     7     8 2   
    17     7     9 1   
    18     9    10 1   
    19     9    54 1   
    20    10    11 1   
    21    10    13 1   
    22    10    55 1   
    23    11    12 2   
    24    11    20 1   
    25    13    14 1   
    26    13    56 1   
    27    13    57 1   
    28    14    15 ar  
    29    14    16 ar  
    30    15    17 ar  
    31    15    58 1   
    32    16    18 ar  
    33    16    59 1   
    34    17    19 ar  
    35    17    60 1   
    36    18    19 ar  
    37    18    61 1   
    38    19    62 1   
    39    20    21 1   
    40    20    63 1   
    41    21    22 1   
    42    21    24 1   
    43    21    64 1   
    44    22    23 2   
    45    22    30 1   
    46    24    25 1   
    47    24    65 1   
    48    24    66 1   
    49    25    26 1   
    50    25    67 1   
    51    25    68 1   
    52    26    27 1   
    53    26    69 1   
    54    26    70 1   
    55    27    71 1   
    56    27    72 1   
    57    27    73 1   
    58    28    43 1   
    59    29    43 1   
    60    30    34 1   
    61    30    74 1   
    62    31    44 1   
    63    31    45 1   
    64    31    94 1   
    65    32    42 1   
    66    32    75 1   
    67    33    44 2   
    68    34    35 1   
    69    34    42 1   
    70    34    76 1   
    71    35    36 1   
    72    35    77 1   
    73    35    78 1   
    74    36    37 1   
    75    36    38 1   
    76    36    79 1   
    77    37    39 1   
    78    37    80 1   
    79    37    81 1   
    80    38    40 1   
    81    38    82 1   
    82    38    83 1   
    83    39    41 1   
    84    39    84 1   
    85    39    85 1   
    86    40    41 1   
    87    40    86 1   
    88    40    87 1   
    89    41    88 1   
    90    41    89 1   
    91    42    43 1   
    92    42    90 1   
    93    43    44 1   
    94    45    91 1   
    95    45    92 1   
    96    45    93 1   
@<TRIPOS>SUBSTRUCTURE
     1 2Y4         1 TEMP              0 ****  ****    0 ROOT
