@<TRIPOS>MOLECULE
2Y6
   59    63     1     0     0
SMALL
No Charge or Current Charge


@<TRIPOS>ATOM
      1 Cl1         43.8390   -21.0130   -16.9410 cl         1 2Y6      -0.194000
      2 C23         44.4100   -19.8330   -15.7590 ca         1 2Y6       0.127000
      3 C22         45.3810   -18.9060   -16.1760 ca         1 2Y6      -0.106000
      4 C21         45.8590   -17.9290   -15.2890 ca         1 2Y6      -0.091000
      5 C20         45.3590   -17.8750   -13.9790 ca         1 2Y6      -0.112000
      6 C19         44.3880   -18.7980   -13.5560 ca         1 2Y6      -0.076000
      7 C18         43.9070   -19.7980   -14.4350 ca         1 2Y6      -0.101300
      8 C17         42.8350   -20.7910   -13.9690 c3         1 2Y6       0.363000
      9 N2          43.0530   -21.1520   -12.5610 n7         1 2Y6      -0.932300
     10 S2          42.2590   -22.4560   -11.9250 s6         1 2Y6       1.285100
     11 O2          43.1310   -22.9460   -10.8580 o          1 2Y6      -0.554000
     12 O3          41.8780   -23.3310   -13.0340 o          1 2Y6      -0.554000
     13 C24         40.7710   -21.6890   -11.1570 cx         1 2Y6      -0.436700
     14 C25         39.4220   -21.7130   -11.8490 cx         1 2Y6      -0.060900
     15 C26         39.6540   -22.5580   -10.6160 cx         1 2Y6      -0.060900
     16 C8          41.4590   -20.2110   -14.1620 cc         1 2Y6      -0.109600
     17 C7          40.8810   -19.1400   -13.4990 cd         1 2Y6      -0.155200
     18 S1          40.3600   -20.8730   -15.4100 ss         1 2Y6       0.156400
     19 C5          39.1290   -19.6740   -14.9110 ca         1 2Y6      -0.128000
     20 C6          39.5400   -18.8170   -13.9190 ca         1 2Y6      -0.093800
     21 C3          38.7040   -17.7970   -13.4500 ca         1 2Y6      -0.059000
     22 C2          37.4280   -17.6650   -14.0350 ca         1 2Y6      -0.124000
     23 C1          37.0130   -18.5450   -15.0620 ca         1 2Y6      -0.081000
     24 C4          37.8540   -19.5940   -15.5330 cp         1 2Y6      -0.119500
     25 C9          37.3790   -20.5090   -16.6250 cp         1 2Y6       0.409500
     26 C13         36.7360   -19.9920   -17.7750 ca         1 2Y6      -0.142000
     27 N1          37.5390   -21.8400   -16.4490 nb         1 2Y6      -0.684000
     28 C10         37.0900   -22.6790   -17.4060 ca         1 2Y6       0.348900
     29 C11         36.4560   -22.2360   -18.5780 ca         1 2Y6      -0.159000
     30 C12         36.2590   -20.8520   -18.7880 ca         1 2Y6      -0.067300
     31 C14         35.5770   -20.2680   -20.0440 c3         1 2Y6       0.221300
     32 C15         34.8950   -21.3330   -20.9370 c3         1 2Y6      -0.097600
     33 C16         36.5990   -19.4600   -20.8750 c3         1 2Y6      -0.097600
     34 O1          34.5540   -19.3650   -19.6250 oh         1 2Y6      -0.659000
     35 H1          45.7610   -18.9430   -17.1940 ha         1 2Y6       0.133000
     36 H2          46.6100   -17.2130   -15.6170 ha         1 2Y6       0.121000
     37 H3          45.7200   -17.1140   -13.2910 ha         1 2Y6       0.122000
     38 H4          44.0060   -18.7290   -12.5390 ha         1 2Y6       0.130000
     39 H5          42.9140   -21.6930   -14.5920 h1         1 2Y6       0.088700
     40 H6          44.0000   -21.5150   -12.4840 hn         1 2Y6       0.508000
     41 H7          41.0780   -20.8100   -10.5980 h1         1 2Y6       0.125700
     42 H8          39.3320   -22.2280   -12.8030 hc         1 2Y6       0.086700
     43 H9          38.7860   -20.8360   -11.7520 hc         1 2Y6       0.086700
     44 H10         39.1670   -22.2490    -9.6940 hc         1 2Y6       0.086700
     45 H11         39.7220   -23.6360   -10.7520 hc         1 2Y6       0.086700
     46 H12         41.3990   -18.6040   -12.7090 ha         1 2Y6       0.207000
     47 H13         39.0310   -17.1220   -12.6630 ha         1 2Y6       0.118000
     48 H14         36.7580   -16.8790   -13.6930 ha         1 2Y6       0.118000
     49 H15         36.0200   -18.4200   -15.4890 ha         1 2Y6       0.113000
     50 H16         36.6210   -18.9170   -17.8730 ha         1 2Y6       0.133000
     51 H17         37.2450   -23.7420   -17.2290 h4         1 2Y6       0.024100
     52 H18         36.1320   -22.9800   -19.2980 ha         1 2Y6       0.125000
     53 H19         34.1700   -21.9240   -20.3640 hc         1 2Y6       0.048033
     54 H20         34.3600   -20.8580   -21.7680 hc         1 2Y6       0.048033
     55 H21         35.6360   -22.0160   -21.3690 hc         1 2Y6       0.048033
     56 H22         37.0290   -18.6400   -20.2880 hc         1 2Y6       0.048033
     57 H23         37.4210   -20.1060   -21.2070 hc         1 2Y6       0.048033
     58 H24         36.1260   -19.0260   -21.7640 hc         1 2Y6       0.048033
     59 H25         33.9860   -19.8600   -18.9960 ho         1 2Y6       0.443000
@<TRIPOS>BOND
     1     1     2 1   
     2     2     3 ar  
     3     2     7 ar  
     4     3     4 ar  
     5     3    35 1   
     6     4     5 ar  
     7     4    36 1   
     8     5     6 ar  
     9     5    37 1   
    10     6     7 ar  
    11     6    38 1   
    12     7     8 1   
    13     8     9 1   
    14     8    16 1   
    15     8    39 1   
    16     9    10 1   
    17     9    40 1   
    18    10    11 2   
    19    10    12 2   
    20    10    13 1   
    21    13    14 1   
    22    13    15 1   
    23    13    41 1   
    24    14    15 1   
    25    14    42 1   
    26    14    43 1   
    27    15    44 1   
    28    15    45 1   
    29    16    17 2   
    30    16    18 1   
    31    17    20 1   
    32    17    46 1   
    33    18    19 1   
    34    19    20 ar  
    35    19    24 ar  
    36    20    21 ar  
    37    21    22 ar  
    38    21    47 1   
    39    22    23 ar  
    40    22    48 1   
    41    23    24 ar  
    42    23    49 1   
    43    24    25 1   
    44    25    26 ar  
    45    25    27 ar  
    46    26    30 ar  
    47    26    50 1   
    48    27    28 ar  
    49    28    29 ar  
    50    28    51 1   
    51    29    30 ar  
    52    29    52 1   
    53    30    31 1   
    54    31    32 1   
    55    31    33 1   
    56    31    34 1   
    57    32    53 1   
    58    32    54 1   
    59    32    55 1   
    60    33    56 1   
    61    33    57 1   
    62    33    58 1   
    63    34    59 1   
@<TRIPOS>SUBSTRUCTURE
     1 2Y6         1 TEMP              0 ****  ****    0 ROOT
