@<TRIPOS>MOLECULE
2Y6
   59    63     1     0     0
SMALL
abcg2


@<TRIPOS>ATOM
      1 CL1         45.1540   -22.4750   -14.3170 cl         1 2Y6      -0.194000
      2 C23         44.9360   -20.7910   -14.7460 ca         1 2Y6       0.127000
      3 C22         45.9750   -20.1540   -15.4130 ca         1 2Y6      -0.106000
      4 C21         45.8450   -18.8150   -15.7590 ca         1 2Y6      -0.091000
      5 C20         44.6810   -18.1270   -15.4380 ca         1 2Y6      -0.112000
      6 C19         43.6500   -18.7820   -14.7770 ca         1 2Y6      -0.076000
      7 C18         43.7530   -20.1250   -14.4170 ca         1 2Y6      -0.101300
      8 C17         42.6280   -20.8240   -13.6680 c3         1 2Y6       0.363000
      9 N2          42.9370   -20.8060   -12.2280 n7         1 2Y6      -0.932300
     10 S2          42.5370   -22.0490   -11.2360 s6         1 2Y6       1.285100
     11 O2          43.3720   -21.8850   -10.0650 o          1 2Y6      -0.554000
     12 O3          42.5770   -23.3090   -11.9480 o          1 2Y6      -0.554000
     13 C24         40.8690   -21.7430   -10.7900 cx         1 2Y6      -0.436700
     14 C25         39.7560   -22.2260   -11.6750 cx         1 2Y6      -0.060900
     15 C26         40.0110   -22.9080   -10.3680 cx         1 2Y6      -0.060900
     16 C8          41.2790   -20.2200   -13.9420 cc         1 2Y6      -0.109600
     17 C7          40.5890   -19.3360   -13.1890 cd         1 2Y6      -0.155200
     18 S1          40.4270   -20.6850   -15.3980 ss         1 2Y6       0.156400
     19 C5          39.0870   -19.6370   -14.9980 ca         1 2Y6      -0.128000
     20 C6          39.3230   -18.9830   -13.7630 ca         1 2Y6      -0.093800
     21 C3          38.3610   -18.1090   -13.2440 ca         1 2Y6      -0.059000
     22 C2          37.1910   -17.8970   -13.9500 ca         1 2Y6      -0.124000
     23 C1          36.9720   -18.5350   -15.1720 ca         1 2Y6      -0.081000
     24 C4          37.9080   -19.4070   -15.7340 cp         1 2Y6      -0.119500
     25 C9          37.6720   -20.0530   -17.0420 cp         1 2Y6       0.409500
     26 C13         36.6190   -19.6770   -17.8870 ca         1 2Y6      -0.142000
     27 N1          38.5330   -21.0160   -17.3930 nb         1 2Y6      -0.684000
     28 C10         38.3680   -21.6260   -18.5670 ca         1 2Y6       0.348900
     29 C11         37.3450   -21.3210   -19.4480 ca         1 2Y6      -0.159000
     30 C12         36.4360   -20.3170   -19.1020 ca         1 2Y6      -0.067300
     31 C14         35.3000   -19.9270   -20.0480 c3         1 2Y6       0.221300
     32 C15         34.4610   -21.1550   -20.4150 c3         1 2Y6      -0.097600
     33 C16         35.8780   -19.2610   -21.2960 c3         1 2Y6      -0.097600
     34 O1          34.4520   -18.9390   -19.4480 oh         1 2Y6      -0.659000
     35 H1          46.8720   -20.7050   -15.6570 ha         1 2Y6       0.133000
     36 H2          46.6530   -18.3180   -16.2800 ha         1 2Y6       0.121000
     37 H3          44.5720   -17.0840   -15.7040 ha         1 2Y6       0.122000
     38 H4          42.7390   -18.2490   -14.5400 ha         1 2Y6       0.130000
     39 H5          42.6080   -21.8660   -13.9940 h1         1 2Y6       0.088700
     40 H6          43.7890   -20.3430   -11.9440 hn         1 2Y6       0.508000
     41 H7          40.7670   -20.7950   -10.2800 h1         1 2Y6       0.125700
     42 H8          40.0330   -22.7510   -12.5790 hc         1 2Y6       0.086700
     43 H9          38.9090   -21.5620   -11.7700 hc         1 2Y6       0.086700
     44 H10         39.3390   -22.7240    -9.5410 hc         1 2Y6       0.086700
     45 H11         40.4570   -23.8930   -10.3960 hc         1 2Y6       0.086700
     46 H12         40.9380   -18.9560   -12.2400 ha         1 2Y6       0.207000
     47 H13         38.5400   -17.6120   -12.2990 ha         1 2Y6       0.118000
     48 H14         36.4330   -17.2310   -13.5580 ha         1 2Y6       0.118000
     49 H15         36.0420   -18.3480   -15.6880 ha         1 2Y6       0.113000
     50 H16         35.9490   -18.8800   -17.6080 ha         1 2Y6       0.133000
     51 H17         39.0910   -22.3970   -18.8140 h4         1 2Y6       0.024100
     52 H18         37.2680   -21.8560   -20.3840 ha         1 2Y6       0.125000
     53 H19         34.0340   -21.6050   -19.5160 hc         1 2Y6       0.048033
     54 H20         33.6510   -20.8520   -21.0780 hc         1 2Y6       0.048033
     55 H21         35.0610   -21.9100   -20.9220 hc         1 2Y6       0.048033
     56 H22         36.4340   -18.3630   -21.0210 hc         1 2Y6       0.048033
     57 H23         36.5510   -19.9410   -21.8170 hc         1 2Y6       0.048033
     58 H24         35.0660   -18.9840   -21.9700 hc         1 2Y6       0.048033
     59 H25         33.9500   -19.3540   -18.7340 ho         1 2Y6       0.443000
@<TRIPOS>BOND
     1     1     2 1   
     2     2     3 ar  
     3     2     7 ar  
     4     3     4 ar  
     5     3    35 1   
     6     4     5 ar  
     7     4    36 1   
     8     5     6 ar  
     9     5    37 1   
    10     6     7 ar  
    11     6    38 1   
    12     7     8 1   
    13     8     9 1   
    14     8    16 1   
    15     8    39 1   
    16     9    10 1   
    17     9    40 1   
    18    10    11 2   
    19    10    12 2   
    20    10    13 1   
    21    13    14 1   
    22    13    15 1   
    23    13    41 1   
    24    14    15 1   
    25    14    42 1   
    26    14    43 1   
    27    15    44 1   
    28    15    45 1   
    29    16    17 2   
    30    16    18 1   
    31    17    20 1   
    32    17    46 1   
    33    18    19 1   
    34    19    20 ar  
    35    19    24 ar  
    36    20    21 ar  
    37    21    22 ar  
    38    21    47 1   
    39    22    23 ar  
    40    22    48 1   
    41    23    24 ar  
    42    23    49 1   
    43    24    25 1   
    44    25    26 ar  
    45    25    27 ar  
    46    26    30 ar  
    47    26    50 1   
    48    27    28 ar  
    49    28    29 ar  
    50    28    51 1   
    51    29    30 ar  
    52    29    52 1   
    53    30    31 1   
    54    31    32 1   
    55    31    33 1   
    56    31    34 1   
    57    32    53 1   
    58    32    54 1   
    59    32    55 1   
    60    33    56 1   
    61    33    57 1   
    62    33    58 1   
    63    34    59 1   
@<TRIPOS>SUBSTRUCTURE
     1 2Y6         1 TEMP              0 ****  ****    0 ROOT
