@<TRIPOS>MOLECULE
2Y7
   51    53     1     0     0
SMALL
bcc


@<TRIPOS>ATOM
      1 FAF          7.8950    -0.7930     1.8440 f          1 2Y7      -0.240300
      2 CAK          7.5150    -1.4710     0.6900 c3         1 2Y7       0.169900
      3 CAL          6.0530    -1.2640     0.4190 c3         1 2Y7       0.102400
      4 OAQ          5.8460     0.0980     0.1040 os         1 2Y7      -0.295900
      5 CAY          4.5910     0.5250    -0.1220 ca         1 2Y7       0.109100
      6 CAJ          3.4660    -0.2770    -0.0980 ca         1 2Y7      -0.176000
      7 CAX          4.4640     1.9030    -0.4030 ca         1 2Y7       0.131100
      8 OAP          5.6090     2.6000    -0.4150 os         1 2Y7      -0.293900
      9 CAA          5.5480     3.9830    -0.7050 c3         1 2Y7       0.121700
     10 CAH          3.2050     2.4300    -0.6420 ca         1 2Y7      -0.200000
     11 CAG          2.0780     1.6170    -0.6110 ca         1 2Y7      -0.073000
     12 CAW          2.1950     0.2620    -0.3410 ca         1 2Y7      -0.140500
     13 CBA          0.9980    -0.5740    -0.3100 cc         1 2Y7       0.510900
     14 NAO         -0.1880    -0.1570    -0.6240 nd         1 2Y7      -0.639000
     15 SAS          1.0270    -2.2350     0.1840 ss         1 2Y7      -0.194300
     16 CAV         -0.6750    -2.3430    -0.0610 cc         1 2Y7      -0.127700
     17 CAB         -1.4210    -3.6160     0.1570 c3         1 2Y7      -0.015800
     18 CBB         -1.1310    -1.1320    -0.4900 cd         1 2Y7       0.359600
     19 CBC         -2.5490    -0.8130    -0.8410 c3         1 2Y7      -0.006900
     20 CAC         -2.7250    -0.5530    -2.3300 c3         1 2Y7      -0.077100
     21 SAR         -3.0170     0.6500     0.1550 ss         1 2Y7      -0.246400
     22 C2          -4.7750     0.5350     0.2220 ca         1 2Y7       0.833300
     23 N3          -5.3740    -0.4990    -0.3230 nb         1 2Y7      -0.822000
     24 N1          -5.3180     1.5570     0.8590 nb         1 2Y7      -0.822000
     25 C6          -6.6560     1.5310     0.9720 ca         1 2Y7       0.740200
     26 NAD         -7.2240     2.5450     1.6520 nv         1 2Y7      -0.959000
     27 C5          -7.4130     0.4880     0.4360 ca         1 2Y7      -0.535600
     28 C4          -6.7150    -0.5240    -0.2180 ca         1 2Y7       0.740200
     29 NAE         -7.3430    -1.5610    -0.8090 nv         1 2Y7      -0.959000
     30 H1           8.1270    -1.1100    -0.1380 h1         1 2Y7       0.053700
     31 H2           7.7050    -2.5350     0.8310 h1         1 2Y7       0.053700
     32 H3           5.7650    -1.9120    -0.4170 h1         1 2Y7       0.043700
     33 H4           5.4610    -1.5620     1.2920 h1         1 2Y7       0.043700
     34 H5           3.5710    -1.3360     0.1030 ha         1 2Y7       0.136000
     35 H6           6.5710     4.3500    -0.6700 h1         1 2Y7       0.042033
     36 H7           5.1380     4.1720    -1.7000 h1         1 2Y7       0.042033
     37 H8           4.9520     4.5260     0.0320 h1         1 2Y7       0.042033
     38 H9           3.0770     3.4830    -0.8500 ha         1 2Y7       0.142000
     39 H10          1.1060     2.0500    -0.7970 ha         1 2Y7       0.160000
     40 H11         -0.8900    -4.2860     0.8310 hc         1 2Y7       0.050033
     41 H12         -2.4000    -3.4230     0.5940 hc         1 2Y7       0.050033
     42 H13         -1.5750    -4.1500    -0.7820 hc         1 2Y7       0.050033
     43 H14         -3.2040    -1.6270    -0.5320 h1         1 2Y7       0.092700
     44 H15         -2.0910     0.2690    -2.6620 hc         1 2Y7       0.047367
     45 H16         -2.4560    -1.4440    -2.8990 hc         1 2Y7       0.047367
     46 H17         -3.7610    -0.3070    -2.5560 hc         1 2Y7       0.047367
     47 H18         -6.6630     3.3460     1.8830 hn         1 2Y7       0.430550
     48 H19         -8.2180     2.6830     1.6140 hn         1 2Y7       0.430550
     49 H20         -8.4900     0.4640     0.5320 ha         1 2Y7       0.142000
     50 H21         -6.7880    -2.3560    -1.0770 hn         1 2Y7       0.430550
     51 H22         -8.3040    -1.7500    -0.5850 hn         1 2Y7       0.430550
@<TRIPOS>BOND
     1     1     2 1   
     2     2     3 1   
     3     2    30 1   
     4     2    31 1   
     5     3     4 1   
     6     3    32 1   
     7     3    33 1   
     8     4     5 1   
     9     5     6 ar  
    10     5     7 ar  
    11     6    12 ar  
    12     6    34 1   
    13     7     8 1   
    14     7    10 ar  
    15     8     9 1   
    16     9    35 1   
    17     9    36 1   
    18     9    37 1   
    19    10    11 ar  
    20    10    38 1   
    21    11    12 ar  
    22    11    39 1   
    23    12    13 1   
    24    13    14 2   
    25    13    15 1   
    26    14    18 1   
    27    15    16 1   
    28    16    17 1   
    29    16    18 2   
    30    17    40 1   
    31    17    41 1   
    32    17    42 1   
    33    18    19 1   
    34    19    20 1   
    35    19    21 1   
    36    19    43 1   
    37    20    44 1   
    38    20    45 1   
    39    20    46 1   
    40    21    22 1   
    41    22    23 ar  
    42    22    24 ar  
    43    23    28 ar  
    44    24    25 ar  
    45    25    26 1   
    46    25    27 ar  
    47    26    47 1   
    48    26    48 1   
    49    27    28 ar  
    50    27    49 1   
    51    28    29 1   
    52    29    50 1   
    53    29    51 1   
@<TRIPOS>SUBSTRUCTURE
     1 2Y7         1 TEMP              0 ****  ****    0 ROOT
