@<TRIPOS>MOLECULE
2Y7
   51    53     1     0     0
SMALL
No Charge or Current Charge


@<TRIPOS>ATOM
      1 FAF          8.2170    -1.0220     1.5670 f          1 2Y7      -0.259000
      2 CAK          7.7410    -1.6710     0.4720 c3         1 2Y7       0.188600
      3 CAL          6.2260    -1.4310     0.3090 c3         1 2Y7       0.125600
      4 OAQ          6.0040    -0.0300     0.0520 os         1 2Y7      -0.319100
      5 CAY          4.7400     0.5060    -0.1420 ca         1 2Y7       0.109100
      6 CAJ          3.5750    -0.2960    -0.0970 ca         1 2Y7      -0.158000
      7 CAX          4.6290     1.8930    -0.3910 ca         1 2Y7       0.131100
      8 OAP          5.7850     2.6570    -0.4300 os         1 2Y7      -0.317100
      9 CAA          5.7670     4.0740    -0.6760 c3         1 2Y7       0.144900
     10 CAH          3.3540     2.4620    -0.5910 ca         1 2Y7      -0.182000
     11 CAG          2.2030     1.6590    -0.5450 ca         1 2Y7      -0.055000
     12 CAW          2.2920     0.2700    -0.2980 ca         1 2Y7      -0.140500
     13 CBA          1.0670    -0.5570    -0.2540 cc         1 2Y7       0.510900
     14 NAO         -0.1440    -0.0490    -0.4480 nd         1 2Y7      -0.639000
     15 SAS          1.1180    -2.2770     0.0560 ss         1 2Y7      -0.049400
     16 CAV         -0.6160    -2.3020    -0.0840 cc         1 2Y7      -0.207300
     17 CAB         -1.3820    -3.5880     0.0900 c3         1 2Y7      -0.015800
     18 CBB         -1.1120    -1.0420    -0.3520 cd         1 2Y7       0.294300
     19 CBC         -2.5780    -0.6920    -0.5350 c3         1 2Y7       0.041000
     20 CAC         -2.8490     0.0450    -1.8660 c3         1 2Y7      -0.077100
     21 SAR         -3.2590     0.2940     0.8830 ss         1 2Y7      -0.294300
     22 C2          -5.0220     0.3080     0.5900 ca         1 2Y7       0.307300
     23 N3          -5.6060    -0.8540     0.2320 nb         1 2Y7      -0.296000
     24 N1          -5.6510     1.4890     0.7540 nb         1 2Y7      -0.296000
     25 C6          -6.9690     1.4910     0.5340 ca         1 2Y7       0.411900
     26 NAD         -7.6000     2.6750     0.6950 nv         1 2Y7      -1.069400
     27 C5          -7.6690     0.3530     0.1560 ca         1 2Y7      -0.387000
     28 C4          -6.9240    -0.8110     0.0180 ca         1 2Y7       0.411900
     29 NAE         -7.5100    -1.9740    -0.3410 nv         1 2Y7      -1.069400
     30 H1           8.2780    -1.3130    -0.4150 h1         1 2Y7       0.053700
     31 H2           7.9350    -2.7440     0.5920 h1         1 2Y7       0.053700
     32 H3           5.8580    -2.0390    -0.5270 h1         1 2Y7       0.043700
     33 H4           5.7100    -1.7480     1.2250 h1         1 2Y7       0.043700
     34 H5           3.6640    -1.3600     0.0930 ha         1 2Y7       0.118000
     35 H6           6.7880     4.4740    -0.6630 h1         1 2Y7       0.042033
     36 H7           5.3280     4.2940    -1.6570 h1         1 2Y7       0.042033
     37 H8           5.1880     4.5960     0.0960 h1         1 2Y7       0.042033
     38 H9           3.2340     3.5240    -0.7850 ha         1 2Y7       0.124000
     39 H10          1.2340     2.1290    -0.7040 ha         1 2Y7       0.142000
     40 H11         -0.7160    -4.4170     0.3600 hc         1 2Y7       0.050033
     41 H12         -2.1340    -3.4920     0.8830 hc         1 2Y7       0.050033
     42 H13         -1.9000    -3.8630    -0.8360 hc         1 2Y7       0.050033
     43 H14         -3.1340    -1.6370    -0.5660 h1         1 2Y7       0.092700
     44 H15         -2.3710     1.0320    -1.8720 hc         1 2Y7       0.047367
     45 H16         -2.4540    -0.5330    -2.7100 hc         1 2Y7       0.047367
     46 H17         -3.9240     0.1840    -2.0270 hc         1 2Y7       0.047367
     47 H18         -7.0330     3.5160     0.7650 hn         1 2Y7       0.485750
     48 H19         -8.5400     2.7850     0.3220 hn         1 2Y7       0.485750
     49 H20         -8.7390     0.3710    -0.0200 ha         1 2Y7       0.124000
     50 H21         -6.9800    -2.8340    -0.2250 hn         1 2Y7       0.485750
     51 H22         -8.5220    -2.0490    -0.2890 hn         1 2Y7       0.485750
@<TRIPOS>BOND
     1     1     2 1   
     2     2     3 1   
     3     2    30 1   
     4     2    31 1   
     5     3     4 1   
     6     3    32 1   
     7     3    33 1   
     8     4     5 1   
     9     5     6 ar  
    10     5     7 ar  
    11     6    12 ar  
    12     6    34 1   
    13     7     8 1   
    14     7    10 ar  
    15     8     9 1   
    16     9    35 1   
    17     9    36 1   
    18     9    37 1   
    19    10    11 ar  
    20    10    38 1   
    21    11    12 ar  
    22    11    39 1   
    23    12    13 1   
    24    13    14 2   
    25    13    15 1   
    26    14    18 1   
    27    15    16 1   
    28    16    17 1   
    29    16    18 2   
    30    17    40 1   
    31    17    41 1   
    32    17    42 1   
    33    18    19 1   
    34    19    20 1   
    35    19    21 1   
    36    19    43 1   
    37    20    44 1   
    38    20    45 1   
    39    20    46 1   
    40    21    22 1   
    41    22    23 ar  
    42    22    24 ar  
    43    23    28 ar  
    44    24    25 ar  
    45    25    26 1   
    46    25    27 ar  
    47    26    47 1   
    48    26    48 1   
    49    27    28 ar  
    50    27    49 1   
    51    28    29 1   
    52    29    50 1   
    53    29    51 1   
@<TRIPOS>SUBSTRUCTURE
     1 2Y7         1 TEMP              0 ****  ****    0 ROOT
