@<TRIPOS>MOLECULE
2Y8
   51    53     1     0     0
SMALL
No Charge or Current Charge


@<TRIPOS>ATOM
      1 FAF         -8.4100     1.3730     0.2120 f          1 2Y8      -0.258000
      2 CAK         -7.7090     1.5800    -0.9330 c3         1 2Y8       0.188600
      3 CAL         -6.2000     1.3580    -0.6990 c3         1 2Y8       0.124600
      4 OAQ         -5.9830    -0.0270    -0.3600 os         1 2Y8      -0.318100
      5 CAY         -4.7260    -0.5450    -0.0910 ca         1 2Y8       0.108100
      6 CAJ         -3.5630     0.2610    -0.1290 ca         1 2Y8      -0.158000
      7 CAX         -4.6190    -1.9180     0.2280 ca         1 2Y8       0.131100
      8 OAP         -5.7720    -2.6860     0.2580 os         1 2Y8      -0.317100
      9 CAA         -5.7580    -4.0890     0.5740 c3         1 2Y8       0.144900
     10 CAH         -3.3500    -2.4680     0.5060 ca         1 2Y8      -0.182000
     11 CAG         -2.2020    -1.6610     0.4670 ca         1 2Y8      -0.055000
     12 CAW         -2.2870    -0.2870     0.1500 ca         1 2Y8      -0.140500
     13 CBA         -1.0650     0.5450     0.1140 cc         1 2Y8       0.508900
     14 NAO          0.1410     0.0540     0.3770 nd         1 2Y8      -0.636000
     15 SAS         -1.1110     2.2500    -0.2750 ss         1 2Y8      -0.047400
     16 CAV          0.6160     2.2910    -0.0720 cc         1 2Y8      -0.208300
     17 CAB          1.3830     3.5720    -0.2750 c3         1 2Y8      -0.015800
     18 CBB          1.1070     1.0480     0.2720 cd         1 2Y8       0.292300
     19 CBC          2.5670     0.7150     0.5250 c3         1 2Y8       0.042000
     20 CAC          2.7900     0.0390     1.8970 c3         1 2Y8      -0.077100
     21 SAR          3.3060    -0.3290    -0.8210 ss         1 2Y8      -0.299300
     22 C2           5.0560    -0.3190    -0.4610 ca         1 2Y8       0.309300
     23 N3           5.6210     0.8620    -0.1360 nb         1 2Y8      -0.296500
     24 N1           5.6960    -1.5030    -0.5460 nb         1 2Y8      -0.296500
     25 C6           7.0040    -1.4870    -0.2750 ca         1 2Y8       0.412400
     26 NAD          7.6470    -2.6720    -0.3590 nv         1 2Y8      -1.069400
     27 C5           7.6850    -0.3270     0.0730 ca         1 2Y8      -0.388000
     28 C4           6.9300     0.8370     0.1280 ca         1 2Y8       0.412400
     29 NAE          7.4970     2.0190     0.4550 nv         1 2Y8      -1.069400
     30 H1          -8.0760     0.8930    -1.7050 h1         1 2Y8       0.053700
     31 H2          -7.8840     2.6100    -1.2670 h1         1 2Y8       0.053700
     32 H3          -5.6560     1.6200    -1.6150 h1         1 2Y8       0.044200
     33 H4          -5.8590     2.0170     0.1100 h1         1 2Y8       0.044200
     34 H5          -3.6490     1.3140    -0.3740 ha         1 2Y8       0.118000
     35 H6          -6.7760    -4.4960     0.5400 h1         1 2Y8       0.042033
     36 H7          -5.1460    -4.6450    -0.1480 h1         1 2Y8       0.042033
     37 H8          -5.3580    -4.2580     1.5820 h1         1 2Y8       0.042033
     38 H9          -3.2330    -3.5190     0.7550 ha         1 2Y8       0.124000
     39 H10         -1.2370    -2.1170     0.6870 ha         1 2Y8       0.141000
     40 H11          0.7240     4.3840    -0.6080 hc         1 2Y8       0.049700
     41 H12          1.8630     3.8930     0.6570 hc         1 2Y8       0.049700
     42 H13          2.1650     3.4450    -1.0340 hc         1 2Y8       0.049700
     43 H14          3.1170     1.6630     0.5350 h1         1 2Y8       0.091700
     44 H15          2.3180    -0.9490     1.9280 hc         1 2Y8       0.047700
     45 H16          3.8590    -0.0850     2.1040 hc         1 2Y8       0.047700
     46 H17          2.3610     0.6520     2.6990 hc         1 2Y8       0.047700
     47 H18          7.1690    -3.4460    -0.8140 hn         1 2Y8       0.486250
     48 H19          8.6630    -2.6780    -0.3930 hn         1 2Y8       0.486250
     49 H20          8.7470    -0.3310     0.2920 ha         1 2Y8       0.124000
     50 H21          6.9690     2.8700     0.2780 hn         1 2Y8       0.486250
     51 H22          8.5110     2.0980     0.4380 hn         1 2Y8       0.486250
@<TRIPOS>BOND
     1     1     2 1   
     2     2     3 1   
     3     2    30 1   
     4     2    31 1   
     5     3     4 1   
     6     3    32 1   
     7     3    33 1   
     8     4     5 1   
     9     5     6 ar  
    10     5     7 ar  
    11     6    12 ar  
    12     6    34 1   
    13     7     8 1   
    14     7    10 ar  
    15     8     9 1   
    16     9    35 1   
    17     9    36 1   
    18     9    37 1   
    19    10    11 ar  
    20    10    38 1   
    21    11    12 ar  
    22    11    39 1   
    23    12    13 1   
    24    13    14 2   
    25    13    15 1   
    26    14    18 1   
    27    15    16 1   
    28    16    17 1   
    29    16    18 2   
    30    17    40 1   
    31    17    41 1   
    32    17    42 1   
    33    18    19 1   
    34    19    20 1   
    35    19    21 1   
    36    19    43 1   
    37    20    44 1   
    38    20    45 1   
    39    20    46 1   
    40    21    22 1   
    41    22    23 ar  
    42    22    24 ar  
    43    23    28 ar  
    44    24    25 ar  
    45    25    26 1   
    46    25    27 ar  
    47    26    47 1   
    48    26    48 1   
    49    27    28 ar  
    50    27    49 1   
    51    28    29 1   
    52    29    50 1   
    53    29    51 1   
@<TRIPOS>SUBSTRUCTURE
     1 2Y8         1 TEMP              0 ****  ****    0 ROOT
