@<TRIPOS>MOLECULE
2Y8
   51    53     1     0     0
SMALL
bcc


@<TRIPOS>ATOM
      1 FAF         -8.2210     1.2580     0.3210 f          1 2Y8      -0.239300
      2 CAK         -7.5030     1.4810    -0.8490 c3         1 2Y8       0.169900
      3 CAL         -6.0380     1.2410    -0.6250 c3         1 2Y8       0.101400
      4 OAQ         -5.8430    -0.1340    -0.3580 os         1 2Y8      -0.294900
      5 CAY         -4.5920    -0.5680    -0.1190 ca         1 2Y8       0.108100
      6 CAJ         -3.4610     0.2250    -0.1500 ca         1 2Y8      -0.176000
      7 CAX         -4.4750    -1.9420     0.1820 ca         1 2Y8       0.131100
      8 OAP         -5.6230    -2.6350     0.1870 os         1 2Y8      -0.293900
      9 CAA         -5.5680    -4.0190     0.4710 c3         1 2Y8       0.121700
     10 CAH         -3.2220    -2.4720     0.4460 ca         1 2Y8      -0.200000
     11 CAG         -2.0900    -1.6660     0.4140 ca         1 2Y8      -0.073000
     12 CAW         -2.1950    -0.3170     0.1130 ca         1 2Y8      -0.140500
     13 CBA         -0.9950     0.5120     0.0710 cc         1 2Y8       0.508900
     14 NAO          0.1700     0.1320     0.4950 nd         1 2Y8      -0.636000
     15 SAS         -0.9890     2.1130    -0.5950 ss         1 2Y8      -0.192300
     16 CAV          0.6960     2.2480    -0.2700 cc         1 2Y8      -0.128700
     17 CAB          1.4760     3.4770    -0.6010 c3         1 2Y8      -0.015800
     18 CBB          1.1210     1.0910     0.3110 cd         1 2Y8       0.357600
     19 CBC          2.5190     0.8250     0.7690 c3         1 2Y8      -0.005900
     20 CAC          2.6110     0.6660     2.2800 c3         1 2Y8      -0.077100
     21 SAR          3.0790    -0.6880    -0.0970 ss         1 2Y8      -0.251400
     22 C2           4.8350    -0.5330    -0.0580 ca         1 2Y8       0.835300
     23 N3           5.3720     0.5620     0.4300 nb         1 2Y8      -0.822500
     24 N1           5.4440    -1.5890    -0.5670 nb         1 2Y8      -0.822500
     25 C6           6.7860    -1.5330    -0.5930 ca         1 2Y8       0.740700
     26 NAD          7.4250    -2.6150    -1.0790 nv         1 2Y8      -0.959000
     27 C5           7.4800    -0.4230    -0.1110 ca         1 2Y8      -0.536600
     28 C4           6.7160     0.6200     0.4070 ca         1 2Y8       0.740700
     29 NAE          7.2750     1.7250     0.9360 nv         1 2Y8      -0.959000
     30 H1          -7.8980     0.8240    -1.6260 h1         1 2Y8       0.053700
     31 H2          -7.6480     2.5170    -1.1560 h1         1 2Y8       0.053700
     32 H3          -5.5020     1.5500    -1.5300 h1         1 2Y8       0.044200
     33 H4          -5.6730     1.8560     0.2050 h1         1 2Y8       0.044200
     34 H5          -3.5560     1.2800    -0.3710 ha         1 2Y8       0.136000
     35 H6          -6.5900    -4.3860     0.4140 h1         1 2Y8       0.042033
     36 H7          -4.9580    -4.5590    -0.2570 h1         1 2Y8       0.042033
     37 H8          -5.1780    -4.2140     1.4730 h1         1 2Y8       0.042033
     38 H9          -3.1040    -3.5220     0.6780 ha         1 2Y8       0.142000
     39 H10         -1.1210    -2.1020     0.6180 ha         1 2Y8       0.159000
     40 H11          0.8840     4.1920    -1.1680 hc         1 2Y8       0.049700
     41 H12          1.8210     3.9790     0.3040 hc         1 2Y8       0.049700
     42 H13          2.3530     3.2310    -1.1990 hc         1 2Y8       0.049700
     43 H14          3.1770     1.6310     0.4470 h1         1 2Y8       0.091700
     44 H15          1.9770    -0.1490     2.6280 hc         1 2Y8       0.047700
     45 H16          3.6370     0.4670     2.5820 hc         1 2Y8       0.047700
     46 H17          2.2870     1.5860     2.7710 hc         1 2Y8       0.047700
     47 H18          6.8890    -3.3020    -1.5820 hn         1 2Y8       0.431050
     48 H19          8.4030    -2.5600    -1.3020 hn         1 2Y8       0.431050
     49 H20          8.5610    -0.3770    -0.1340 ha         1 2Y8       0.142000
     50 H21          6.6840     2.5180     1.1190 hn         1 2Y8       0.431050
     51 H22          8.2490     1.9180     0.7770 hn         1 2Y8       0.431050
@<TRIPOS>BOND
     1     1     2 1   
     2     2     3 1   
     3     2    30 1   
     4     2    31 1   
     5     3     4 1   
     6     3    32 1   
     7     3    33 1   
     8     4     5 1   
     9     5     6 ar  
    10     5     7 ar  
    11     6    12 ar  
    12     6    34 1   
    13     7     8 1   
    14     7    10 ar  
    15     8     9 1   
    16     9    35 1   
    17     9    36 1   
    18     9    37 1   
    19    10    11 ar  
    20    10    38 1   
    21    11    12 ar  
    22    11    39 1   
    23    12    13 1   
    24    13    14 2   
    25    13    15 1   
    26    14    18 1   
    27    15    16 1   
    28    16    17 1   
    29    16    18 2   
    30    17    40 1   
    31    17    41 1   
    32    17    42 1   
    33    18    19 1   
    34    19    20 1   
    35    19    21 1   
    36    19    43 1   
    37    20    44 1   
    38    20    45 1   
    39    20    46 1   
    40    21    22 1   
    41    22    23 ar  
    42    22    24 ar  
    43    23    28 ar  
    44    24    25 ar  
    45    25    26 1   
    46    25    27 ar  
    47    26    47 1   
    48    26    48 1   
    49    27    28 ar  
    50    27    49 1   
    51    28    29 1   
    52    29    50 1   
    53    29    51 1   
@<TRIPOS>SUBSTRUCTURE
     1 2Y8         1 TEMP              0 ****  ****    0 ROOT
