@<TRIPOS>MOLECULE
2Y9
   76    78     1     0     0
SMALL
No Charge or Current Charge


@<TRIPOS>ATOM
      1 C1           1.4090    -3.6970    -1.3160 c6         1 2Y9       0.171800
      2 C2           1.6230    -2.4470    -0.4310 c6         1 2Y9      -0.139700
      3 C3           0.3430    -2.0170     0.3260 c6         1 2Y9       0.195300
      4 C4          -0.8570    -1.9630    -0.6470 c6         1 2Y9      -0.186700
      5 C5          -1.0060    -3.2140    -1.5370 c6         1 2Y9       0.173800
      6 N6           0.2660    -3.4980    -2.2430 n7         1 2Y9      -0.875400
      7 C7           2.8620    -2.5450     0.4890 c          1 2Y9       0.638100
      8 C8          -2.1660    -1.5870     0.0460 c          1 2Y9       0.594100
      9 O9          -2.6210    -2.2740     0.9500 o          1 2Y9      -0.632100
     10 N10          3.4580    -1.3770     1.0200 n          1 2Y9      -0.396300
     11 O11          3.2960    -3.6470     0.8080 o          1 2Y9      -0.569100
     12 N12         -2.7790    -0.4350    -0.3850 ns         1 2Y9      -0.485900
     13 O13          0.0590    -2.9270     1.3910 oh         1 2Y9      -0.662000
     14 C14          4.5510    -1.4840     1.9900 cx         1 2Y9       0.047700
     15 C15          3.0280    -0.0710     0.6800 ca         1 2Y9       0.471900
     16 C16          5.9560    -1.8630     1.5850 cx         1 2Y9      -0.129400
     17 C17          5.6730    -0.4760     2.1070 cx         1 2Y9      -0.129400
     18 C18          2.3540     0.7270     1.6180 ca         1 2Y9      -0.167000
     19 C19          1.9810     2.0330     1.2640 ca         1 2Y9      -0.063000
     20 C20          2.3120     2.4960    -0.0230 ca         1 2Y9      -0.136300
     21 C21          3.0070     1.6230    -0.8890 ca         1 2Y9       0.353900
     22 N22          3.3680     0.3660    -0.5470 nb         1 2Y9      -0.695000
     23 C23          1.9270     3.9080    -0.4640 c3         1 2Y9      -0.009400
     24 C24          3.1660     4.7390    -0.8630 c3         1 2Y9      -0.090100
     25 C25          0.8770     3.8700    -1.5960 c3         1 2Y9      -0.090100
     26 C26         -4.0180     0.1120     0.1800 c3         1 2Y9       0.119700
     27 C27         -4.8340     0.8780    -0.8960 c3         1 2Y9      -0.087400
     28 C28         -5.1930     0.0680    -2.1760 c3         1 2Y9      -0.059700
     29 C29         -6.0230    -1.2020    -1.8710 c3         1 2Y9      -0.090100
     30 C30         -5.9190     0.9620    -3.2070 c3         1 2Y9      -0.090100
     31 C31         -3.7300     0.9690     1.4410 c3         1 2Y9       0.140600
     32 O32         -2.8710     2.0690     1.0780 os         1 2Y9      -0.467000
     33 C33         -2.5190     2.9340     2.1670 c3         1 2Y9       0.160600
     34 C34         -1.6180     4.0410     1.6020 c3         1 2Y9      -0.094100
     35 H1           2.3220    -3.8980    -1.8980 h1         1 2Y9       0.055700
     36 H2           1.2220    -4.5760    -0.6790 h1         1 2Y9       0.055700
     37 H3           1.8150    -1.6020    -1.0980 hc         1 2Y9       0.103700
     38 H4           0.4860    -1.0100     0.7430 h1         1 2Y9       0.036700
     39 H5          -0.6470    -1.1420    -1.3450 hc         1 2Y9       0.074700
     40 H6          -1.2890    -4.0810    -0.9200 h1         1 2Y9       0.046700
     41 H7          -1.8090    -3.0540    -2.2730 h1         1 2Y9       0.046700
     42 H8           0.1460    -4.3490    -2.8100 hn         1 2Y9       0.419000
     43 H10         -2.3140     0.0920    -1.1130 hn         1 2Y9       0.320500
     44 H11         -0.9220    -2.8860     1.5140 ho         1 2Y9       0.471000
     45 H12          4.1520    -1.9100     2.9120 h1         1 2Y9       0.089700
     46 H13          6.4970    -2.5510     2.2300 hc         1 2Y9       0.079200
     47 H14          6.1640    -1.9720     0.5240 hc         1 2Y9       0.079200
     48 H15          5.7110     0.3450     1.3950 hc         1 2Y9       0.079200
     49 H16          6.0230    -0.2280     3.1060 hc         1 2Y9       0.079200
     50 H17          2.1250     0.3340     2.6040 ha         1 2Y9       0.136000
     51 H18          1.4550     2.6660     1.9750 ha         1 2Y9       0.119000
     52 H19          3.2850     1.9400    -1.8930 h4         1 2Y9       0.022100
     53 H20          1.4630     4.4300     0.3820 hc         1 2Y9       0.050700
     54 H21          3.6600     4.3190    -1.7480 hc         1 2Y9       0.038700
     55 H22          2.8810     5.7720    -1.0920 hc         1 2Y9       0.038700
     56 H23          3.8930     4.7620    -0.0420 hc         1 2Y9       0.038700
     57 H24         -0.0030     3.2940    -1.2870 hc         1 2Y9       0.038700
     58 H25          0.5460     4.8840    -1.8510 hc         1 2Y9       0.038700
     59 H26          1.2890     3.4070    -2.5010 hc         1 2Y9       0.038700
     60 H27         -4.6350    -0.7320     0.5170 h1         1 2Y9       0.078700
     61 H28         -5.7610     1.2430    -0.4370 hc         1 2Y9       0.053700
     62 H29         -4.2680     1.7690    -1.1950 hc         1 2Y9       0.053700
     63 H30         -4.2570    -0.2590    -2.6480 hc         1 2Y9       0.042700
     64 H31         -6.2950    -1.7180    -2.8000 hc         1 2Y9       0.034867
     65 H32         -5.4540    -1.9100    -1.2580 hc         1 2Y9       0.034867
     66 H33         -6.9470    -0.9470    -1.3390 hc         1 2Y9       0.034867
     67 H34         -6.8750     1.3220    -2.8080 hc         1 2Y9       0.034867
     68 H35         -5.3050     1.8330    -3.4660 hc         1 2Y9       0.034867
     69 H36         -6.1200     0.4060    -4.1310 hc         1 2Y9       0.034867
     70 H37         -4.6790     1.3370     1.8540 h1         1 2Y9       0.036700
     71 H38         -3.2500     0.3400     2.2020 h1         1 2Y9       0.036700
     72 H39         -3.4160     3.3820     2.6160 h1         1 2Y9       0.022700
     73 H40         -1.9770     2.3800     2.9450 h1         1 2Y9       0.022700
     74 H41         -0.7210     3.6070     1.1490 hc         1 2Y9       0.041700
     75 H42         -2.1500     4.6230     0.8410 hc         1 2Y9       0.041700
     76 H43         -1.3060     4.7220     2.4020 hc         1 2Y9       0.041700
@<TRIPOS>BOND
     1     1     2 1   
     2     1     6 1   
     3     1    35 1   
     4     1    36 1   
     5     2     3 1   
     6     2     7 1   
     7     2    37 1   
     8     3     4 1   
     9     3    13 1   
    10     3    38 1   
    11     4     5 1   
    12     4     8 1   
    13     4    39 1   
    14     5     6 1   
    15     5    40 1   
    16     5    41 1   
    17     6    42 1   
    18     7    10 1   
    19     7    11 2   
    20     8     9 2   
    21     8    12 1   
    22    10    14 1   
    23    10    15 1   
    24    12    26 1   
    25    12    43 1   
    26    13    44 1   
    27    14    16 1   
    28    14    17 1   
    29    14    45 1   
    30    15    18 ar  
    31    15    22 ar  
    32    16    17 1   
    33    16    46 1   
    34    16    47 1   
    35    17    48 1   
    36    17    49 1   
    37    18    19 ar  
    38    18    50 1   
    39    19    20 ar  
    40    19    51 1   
    41    20    21 ar  
    42    20    23 1   
    43    21    22 ar  
    44    21    52 1   
    45    23    24 1   
    46    23    25 1   
    47    23    53 1   
    48    24    54 1   
    49    24    55 1   
    50    24    56 1   
    51    25    57 1   
    52    25    58 1   
    53    25    59 1   
    54    26    27 1   
    55    26    31 1   
    56    26    60 1   
    57    27    28 1   
    58    27    61 1   
    59    27    62 1   
    60    28    29 1   
    61    28    30 1   
    62    28    63 1   
    63    29    64 1   
    64    29    65 1   
    65    29    66 1   
    66    30    67 1   
    67    30    68 1   
    68    30    69 1   
    69    31    32 1   
    70    31    70 1   
    71    31    71 1   
    72    32    33 1   
    73    33    34 1   
    74    33    72 1   
    75    33    73 1   
    76    34    74 1   
    77    34    75 1   
    78    34    76 1   
@<TRIPOS>SUBSTRUCTURE
     1 2Y9         1 TEMP              0 ****  ****    0 ROOT
