@<TRIPOS>MOLECULE
2Y9
   76    78     1     0     0
SMALL
bcc


@<TRIPOS>ATOM
      1 C1           1.4670    -3.9300    -0.9080 c6         1 2Y9       0.171800
      2 C2           1.7040    -2.5360    -0.3340 c6         1 2Y9      -0.139700
      3 C3           0.4220    -2.0170     0.3320 c6         1 2Y9       0.172100
      4 C4          -0.7110    -2.0460    -0.7110 c6         1 2Y9      -0.186700
      5 C5          -0.8670    -3.4480    -1.2970 c6         1 2Y9       0.173800
      6 N6           0.3950    -3.8480    -1.8860 n7         1 2Y9      -0.820200
      7 C7           2.8760    -2.5220     0.6310 c          1 2Y9       0.705100
      8 C8          -2.0000    -1.5620    -0.0840 c          1 2Y9       0.661100
      9 O9          -2.5990    -2.2520     0.7400 o          1 2Y9      -0.632100
     10 N10          3.4050    -1.3100     1.0050 n          1 2Y9      -0.463300
     11 O11          3.3410    -3.5510     1.0830 o          1 2Y9      -0.569100
     12 N12         -2.4230    -0.3500    -0.4570 ns         1 2Y9      -0.552900
     13 O13          0.1690    -2.8210     1.4560 oh         1 2Y9      -0.599800
     14 C14          4.4270    -1.3190     2.0180 cx         1 2Y9       0.047700
     15 C15          2.8880    -0.0570     0.6020 ca         1 2Y9       0.537200
     16 C16          5.8050    -1.7660     1.6520 cx         1 2Y9      -0.129400
     17 C17          5.5330    -0.3190     1.9190 cx         1 2Y9      -0.129400
     18 C18          2.5100     0.8760     1.5620 ca         1 2Y9      -0.250300
     19 C19          1.9690     2.0740     1.1320 ca         1 2Y9      -0.081000
     20 C20          1.7970     2.3190    -0.2270 ca         1 2Y9      -0.201600
     21 C21          2.2520     1.3290    -1.0900 ca         1 2Y9       0.419200
     22 N22          2.7990     0.1870    -0.6940 nb         1 2Y9      -0.695000
     23 C23          1.1130     3.5620    -0.7380 c3         1 2Y9      -0.009400
     24 C24          1.9380     4.2890    -1.7980 c3         1 2Y9      -0.090100
     25 C25         -0.2840     3.2160    -1.2600 c3         1 2Y9      -0.090100
     26 C26         -3.6480     0.2640     0.0260 c3         1 2Y9       0.119700
     27 C27         -4.1540     1.2720    -1.0020 c3         1 2Y9      -0.087400
     28 C28         -4.4490     0.6980    -2.3900 c3         1 2Y9      -0.059700
     29 C29         -5.4790    -0.4260    -2.3490 c3         1 2Y9      -0.090100
     30 C30         -4.9130     1.8140    -3.3210 c3         1 2Y9      -0.090100
     31 C31         -3.4830     0.8750     1.4100 c3         1 2Y9       0.117400
     32 O32         -2.5950     1.9570     1.3590 os         1 2Y9      -0.420600
     33 C33         -2.4130     2.5720     2.6130 c3         1 2Y9       0.137400
     34 C34         -1.4930     3.7620     2.4630 c3         1 2Y9      -0.094100
     35 H1           2.3690    -4.2740    -1.4170 h1         1 2Y9       0.055700
     36 H2           1.2590    -4.6460    -0.1040 h1         1 2Y9       0.055700
     37 H3           1.9320    -1.8710    -1.1680 hc         1 2Y9       0.103700
     38 H4           0.5530    -0.9690     0.6370 h1         1 2Y9       0.036700
     39 H5          -0.4110    -1.3710    -1.5200 hc         1 2Y9       0.074700
     40 H6          -1.2180    -4.1350    -0.5150 h1         1 2Y9       0.046700
     41 H7          -1.6290    -3.4360    -2.0790 h1         1 2Y9       0.046700
     42 H8           0.2840    -4.7470    -2.3360 hn         1 2Y9       0.363800
     43 H10         -1.8510     0.1800    -1.0950 hn         1 2Y9       0.320500
     44 H11         -0.7720    -2.7730     1.6730 ho         1 2Y9       0.432000
     45 H12          4.0790    -1.5730     3.0150 h1         1 2Y9       0.089700
     46 H13          6.3560    -2.3420     2.3840 hc         1 2Y9       0.079200
     47 H14          5.9780    -2.0590     0.6250 hc         1 2Y9       0.079200
     48 H15          5.5340     0.3580     1.0740 hc         1 2Y9       0.079200
     49 H16          5.8880     0.1210     2.8410 hc         1 2Y9       0.079200
     50 H17          2.6170     0.6630     2.6160 ha         1 2Y9       0.154000
     51 H18          1.6600     2.8130     1.8610 ha         1 2Y9       0.137000
     52 H19          2.1780     1.4650    -2.1650 h4         1 2Y9       0.022100
     53 H20          0.9960     4.2420     0.1110 hc         1 2Y9       0.050700
     54 H21          2.0630     3.6860    -2.6990 hc         1 2Y9       0.038700
     55 H22          1.4400     5.2130    -2.0930 hc         1 2Y9       0.038700
     56 H23          2.9290     4.5450    -1.4250 hc         1 2Y9       0.038700
     57 H24         -0.8900     2.7390    -0.4880 hc         1 2Y9       0.038700
     58 H25         -0.8070     4.1160    -1.5880 hc         1 2Y9       0.038700
     59 H26         -0.2270     2.5380    -2.1150 hc         1 2Y9       0.038700
     60 H27         -4.3910    -0.5300     0.1380 h1         1 2Y9       0.078700
     61 H28         -5.0690     1.7230    -0.6040 hc         1 2Y9       0.053700
     62 H29         -3.4320     2.0890    -1.0990 hc         1 2Y9       0.053700
     63 H30         -3.5190     0.2890    -2.8020 hc         1 2Y9       0.042700
     64 H31         -5.7200    -0.7670    -3.3570 hc         1 2Y9       0.034867
     65 H32         -5.1260    -1.2960    -1.7930 hc         1 2Y9       0.034867
     66 H33         -6.4080    -0.0880    -1.8840 hc         1 2Y9       0.034867
     67 H34         -5.8540     2.2480    -2.9740 hc         1 2Y9       0.034867
     68 H35         -4.1790     2.6200    -3.3790 hc         1 2Y9       0.034867
     69 H36         -5.0750     1.4400    -4.3330 hc         1 2Y9       0.034867
     70 H37         -4.4750     1.1940     1.7630 h1         1 2Y9       0.036700
     71 H38         -3.1290     0.1060     2.1100 h1         1 2Y9       0.036700
     72 H39         -3.3790     2.8970     3.0240 h1         1 2Y9       0.022700
     73 H40         -1.9900     1.8570     3.3320 h1         1 2Y9       0.022700
     74 H41         -0.5140     3.4580     2.0930 hc         1 2Y9       0.041700
     75 H42         -1.9040     4.5020     1.7760 hc         1 2Y9       0.041700
     76 H43         -1.3500     4.2430     3.4310 hc         1 2Y9       0.041700
@<TRIPOS>BOND
     1     1     2 1   
     2     1     6 1   
     3     1    35 1   
     4     1    36 1   
     5     2     3 1   
     6     2     7 1   
     7     2    37 1   
     8     3     4 1   
     9     3    13 1   
    10     3    38 1   
    11     4     5 1   
    12     4     8 1   
    13     4    39 1   
    14     5     6 1   
    15     5    40 1   
    16     5    41 1   
    17     6    42 1   
    18     7    10 1   
    19     7    11 2   
    20     8     9 2   
    21     8    12 1   
    22    10    14 1   
    23    10    15 1   
    24    12    26 1   
    25    12    43 1   
    26    13    44 1   
    27    14    16 1   
    28    14    17 1   
    29    14    45 1   
    30    15    18 ar  
    31    15    22 ar  
    32    16    17 1   
    33    16    46 1   
    34    16    47 1   
    35    17    48 1   
    36    17    49 1   
    37    18    19 ar  
    38    18    50 1   
    39    19    20 ar  
    40    19    51 1   
    41    20    21 ar  
    42    20    23 1   
    43    21    22 ar  
    44    21    52 1   
    45    23    24 1   
    46    23    25 1   
    47    23    53 1   
    48    24    54 1   
    49    24    55 1   
    50    24    56 1   
    51    25    57 1   
    52    25    58 1   
    53    25    59 1   
    54    26    27 1   
    55    26    31 1   
    56    26    60 1   
    57    27    28 1   
    58    27    61 1   
    59    27    62 1   
    60    28    29 1   
    61    28    30 1   
    62    28    63 1   
    63    29    64 1   
    64    29    65 1   
    65    29    66 1   
    66    30    67 1   
    67    30    68 1   
    68    30    69 1   
    69    31    32 1   
    70    31    70 1   
    71    31    71 1   
    72    32    33 1   
    73    33    34 1   
    74    33    72 1   
    75    33    73 1   
    76    34    74 1   
    77    34    75 1   
    78    34    76 1   
@<TRIPOS>SUBSTRUCTURE
     1 2Y9         1 TEMP              0 ****  ****    0 ROOT
