@<TRIPOS>MOLECULE
2YA
   41    44     1     0     0
SMALL
abcg2


@<TRIPOS>ATOM
      1 CL1        -30.9430     0.9320     7.8790 cl         1 2YA      -0.191000
      2 C19        -31.0110     0.2910     6.2550 ca         1 2YA       0.126000
      3 C18        -32.2180    -0.1890     5.7630 ca         1 2YA      -0.088500
      4 C17        -32.2710    -0.7070     4.4770 ca         1 2YA      -0.092500
      5 C16        -31.1190    -0.7250     3.6960 ca         1 2YA      -0.001200
      6 C21        -29.9160    -0.2350     4.1910 ca         1 2YA      -0.092500
      7 C20        -29.8580     0.2700     5.4820 ca         1 2YA      -0.088500
      8 N3         -31.1760    -1.2540     2.3790 na         1 2YA       0.213000
      9 C15        -30.2020    -1.8890     1.6820 cc         1 2YA      -0.160000
     10 C14        -30.7900    -2.2100     0.4840 cd         1 2YA       0.150300
     11 N1         -32.0720    -1.7600     0.5080 nd         1 2YA      -0.348000
     12 N2         -32.3070    -1.1780     1.6490 nc         1 2YA      -0.184800
     13 C11        -30.2150    -2.9140    -0.7060 c3         1 2YA       0.164000
     14 C12        -29.5330    -1.9660    -1.6770 c3         1 2YA      -0.086100
     15 O1         -29.2060    -3.8550    -0.2870 os         1 2YA      -0.350100
     16 C1         -29.5660    -4.9560     0.4020 ca         1 2YA       0.148100
     17 C6         -28.4970    -5.7790     0.8600 ca         1 2YA      -0.051000
     18 C7         -27.1410    -5.4680     0.6140 ca         1 2YA      -0.085000
     19 C8         -26.1400    -6.2890     1.0740 ca         1 2YA      -0.102000
     20 C9         -26.4540    -7.4530     1.8010 ca         1 2YA      -0.100000
     21 C10        -27.7630    -7.7850     2.0600 ca         1 2YA      -0.070000
     22 C5         -28.7940    -6.9540     1.5940 ca         1 2YA      -0.099000
     23 N4         -30.1210    -7.2940     1.8610 na         1 2YA       0.415300
     24 O2         -30.3910    -8.3750     2.5420 o          1 2YA      -0.545000
     25 C3         -31.0980    -6.5020     1.4140 ca         1 2YA      -0.109300
     26 C2         -30.8570    -5.3350     0.6880 ca         1 2YA      -0.200000
     27 H1         -33.1060    -0.1710     6.3790 ha         1 2YA       0.140000
     28 H2         -33.1970    -1.1010     4.0860 ha         1 2YA       0.139000
     29 H3         -29.0280    -0.2340     3.5740 ha         1 2YA       0.139000
     30 H4         -28.9270     0.6530     5.8760 ha         1 2YA       0.140000
     31 H5         -29.2250    -2.0870     2.0840 h4         1 2YA       0.178000
     32 H6         -31.0160    -3.4500    -1.2200 h1         1 2YA       0.072700
     33 H7         -30.2540    -1.2280    -2.0280 hc         1 2YA       0.055700
     34 H8         -28.7110    -1.4460    -1.1830 hc         1 2YA       0.055700
     35 H9         -29.1490    -2.5200    -2.5340 hc         1 2YA       0.055700
     36 H10        -26.9070    -4.5730     0.0560 ha         1 2YA       0.132000
     37 H11        -25.1050    -6.0400     0.8790 ha         1 2YA       0.120000
     38 H12        -25.6590    -8.0930     2.1590 ha         1 2YA       0.123000
     39 H13        -28.0270    -8.6710     2.6150 ha         1 2YA       0.160000
     40 H15        -32.0960    -6.8300     1.6610 h4         1 2YA       0.168000
     41 H16        -31.7130    -4.7570     0.3790 ha         1 2YA       0.148000
@<TRIPOS>BOND
     1     1     2 1   
     2     2     3 ar  
     3     2     7 ar  
     4     3     4 ar  
     5     3    27 1   
     6     4     5 ar  
     7     4    28 1   
     8     5     6 ar  
     9     5     8 1   
    10     6     7 ar  
    11     6    29 1   
    12     7    30 1   
    13     8     9 1   
    14     8    12 1   
    15     9    10 2   
    16     9    31 1   
    17    10    11 1   
    18    10    13 1   
    19    11    12 2   
    20    13    14 1   
    21    13    15 1   
    22    13    32 1   
    23    14    33 1   
    24    14    34 1   
    25    14    35 1   
    26    15    16 1   
    27    16    17 ar  
    28    16    26 ar  
    29    17    18 ar  
    30    17    22 ar  
    31    18    19 ar  
    32    18    36 1   
    33    19    20 ar  
    34    19    37 1   
    35    20    21 ar  
    36    20    38 1   
    37    21    22 ar  
    38    21    39 1   
    39    22    23 1   
    40    23    24 1   
    41    23    25 2   
    42    25    26 ar  
    43    25    40 1   
    44    26    41 1   
@<TRIPOS>SUBSTRUCTURE
     1 2YA         1 TEMP              0 ****  ****    0 ROOT
