@<TRIPOS>MOLECULE
2YA
   41    44     1     0     0
SMALL
No Charge or Current Charge


@<TRIPOS>ATOM
      1 Cl1        -30.7150     0.7230     7.9120 cl         1 2YA      -0.191000
      2 C19        -30.8640     0.1270     6.2640 ca         1 2YA       0.126000
      3 C18        -32.0670    -0.4560     5.8350 ca         1 2YA      -0.088500
      4 C17        -32.1880    -0.9330     4.5170 ca         1 2YA      -0.092500
      5 C16        -31.1030    -0.8300     3.6180 ca         1 2YA      -0.001200
      6 C21        -29.8980    -0.2420     4.0600 ca         1 2YA      -0.092500
      7 C20        -29.7800     0.2350     5.3780 ca         1 2YA      -0.088500
      8 N3         -31.2210    -1.3080     2.3080 na         1 2YA       0.213000
      9 C15        -30.2340    -1.9640     1.6290 cc         1 2YA      -0.160000
     10 C14        -30.8180    -2.1630     0.4060 cd         1 2YA       0.150300
     11 N1         -32.0930    -1.6150     0.4020 nd         1 2YA      -0.348000
     12 N2         -32.3380    -1.0780     1.5710 nc         1 2YA      -0.184800
     13 C11        -30.2380    -2.8720    -0.8030 c3         1 2YA       0.164000
     14 C12        -29.5010    -1.9000    -1.7430 c3         1 2YA      -0.086100
     15 O1         -29.2700    -3.8570    -0.3830 os         1 2YA      -0.350100
     16 C1         -29.5960    -4.9720     0.3720 ca         1 2YA       0.148100
     17 C6         -28.5520    -5.7590     0.9200 ca         1 2YA      -0.051000
     18 C7         -27.2000    -5.4100     0.6990 ca         1 2YA      -0.085000
     19 C8         -26.1640    -6.1840     1.2420 ca         1 2YA      -0.102000
     20 C9         -26.4640    -7.3160     2.0130 ca         1 2YA      -0.100000
     21 C10        -27.8010    -7.6760     2.2430 ca         1 2YA      -0.070000
     22 C5         -28.8580    -6.9050     1.7020 ca         1 2YA      -0.099000
     23 N4         -30.2010    -7.2580     1.9300 na         1 2YA       0.415300
     24 O2         -30.4980    -8.2510     2.6140 o          1 2YA      -0.545000
     25 C3         -31.2180    -6.4840     1.3810 ca         1 2YA      -0.109300
     26 C2         -30.9380    -5.3460     0.6040 ca         1 2YA      -0.200000
     27 H1         -32.9040    -0.5380     6.5240 ha         1 2YA       0.140000
     28 H2         -33.1240    -1.3870     4.1990 ha         1 2YA       0.139000
     29 H3         -29.0520    -0.1440     3.3820 ha         1 2YA       0.139000
     30 H4         -28.8510     0.6880     5.7130 ha         1 2YA       0.140000
     31 H5         -29.2720    -2.2370     2.0380 h4         1 2YA       0.178000
     32 H6         -31.0500    -3.3450    -1.3710 h1         1 2YA       0.072700
     33 H7         -30.1890    -1.1300    -2.1110 hc         1 2YA       0.055700
     34 H8         -28.6770    -1.4020    -1.2180 hc         1 2YA       0.055700
     35 H9         -29.0920    -2.4360    -2.6070 hc         1 2YA       0.055700
     36 H10        -26.9420    -4.5360     0.1040 ha         1 2YA       0.132000
     37 H11        -25.1270    -5.9060     1.0650 ha         1 2YA       0.120000
     38 H12        -25.6590    -7.9160     2.4340 ha         1 2YA       0.123000
     39 H13        -28.0110    -8.5590     2.8460 ha         1 2YA       0.160000
     40 H15        -32.2400    -6.8040     1.5810 h4         1 2YA       0.168000
     41 H16        -31.7680    -4.7790     0.1950 ha         1 2YA       0.148000
@<TRIPOS>BOND
     1     1     2 1   
     2     2     3 ar  
     3     2     7 ar  
     4     3     4 ar  
     5     3    27 1   
     6     4     5 ar  
     7     4    28 1   
     8     5     6 ar  
     9     5     8 1   
    10     6     7 ar  
    11     6    29 1   
    12     7    30 1   
    13     8     9 1   
    14     8    12 1   
    15     9    10 2   
    16     9    31 1   
    17    10    11 1   
    18    10    13 1   
    19    11    12 2   
    20    13    14 1   
    21    13    15 1   
    22    13    32 1   
    23    14    33 1   
    24    14    34 1   
    25    14    35 1   
    26    15    16 1   
    27    16    17 ar  
    28    16    26 ar  
    29    17    18 ar  
    30    17    22 ar  
    31    18    19 ar  
    32    18    36 1   
    33    19    20 ar  
    34    19    37 1   
    35    20    21 ar  
    36    20    38 1   
    37    21    22 ar  
    38    21    39 1   
    39    22    23 1   
    40    23    24 1   
    41    23    25 2   
    42    25    26 ar  
    43    25    40 1   
    44    26    41 1   
@<TRIPOS>SUBSTRUCTURE
     1 2YA         1 TEMP              0 ****  ****    0 ROOT
