@<TRIPOS>MOLECULE
2YB
   68    71     1     0     0
SMALL
No Charge or Current Charge


@<TRIPOS>ATOM
      1 C4          -4.4460    -1.1150     0.5380 ca         1 2YB       0.147100
      2 C6          -6.0820     0.5240    -0.3150 c3         1 2YB       0.172600
      3 C7          -7.4960     0.9860     0.0850 c3         1 2YB      -0.055400
      4 C8          -8.0550     2.0900    -0.8530 c3         1 2YB      -0.301400
      5 C10        -10.1200     3.8930    -1.6120 c3         1 2YB      -0.338100
      6 C13         -4.1470    -2.0890     1.4980 ca         1 2YB      -0.180500
      7 C15         -2.6370    -3.8030     2.5660 c3         1 2YB      -0.051300
      8 C17         -0.6410    -3.1780     0.4440 cp         1 2YB      -0.039000
      9 C20          1.8520    -4.5190     0.3740 ca         1 2YB      -0.083000
     10 C21          1.8030    -3.1520     0.7060 ca         1 2YB      -0.086300
     11 C22          3.0820    -2.3880     1.0250 c3         1 2YB       0.212900
     12 C24          4.6120    -0.8700    -0.1700 ca         1 2YB       0.148100
     13 C26          6.5950     0.1130     0.8890 ca         1 2YB      -0.029000
     14 C28          8.0360     1.6600    -0.6520 c5         1 2YB      -0.003400
     15 C1          -1.2800    -1.1230    -1.6130 c3         1 2YB      -0.051300
     16 C2          -2.2630    -1.4770    -0.5000 ca         1 2YB      -0.017800
     17 C3          -3.5020    -0.8090    -0.4610 ca         1 2YB      -0.180500
     18 O5          -5.6740    -0.4900     0.6190 os         1 2YB      -0.350100
     19 S9          -9.7150     2.6420    -0.3960 s6         1 2YB       1.084000
     20 O11        -10.6390     1.5170    -0.5850 o          1 2YB      -0.514500
     21 O12         -9.6330     3.2990     0.9140 o          1 2YB      -0.514500
     22 C14         -2.9140    -2.7660     1.4810 ca         1 2YB      -0.017800
     23 C16         -1.9540    -2.4660     0.4750 cp         1 2YB      -0.077000
     24 C18         -0.5680    -4.5510     0.1150 ca         1 2YB      -0.097000
     25 C19          0.6680    -5.2170     0.0800 ca         1 2YB      -0.122000
     26 O23          3.4880    -1.6670    -0.1510 os         1 2YB      -0.352100
     27 C25          5.4520    -0.7090     0.9610 ca         1 2YB      -0.251000
     28 C27          6.8750     0.7710    -0.3190 ca         1 2YB      -0.180300
     29 C30          8.3810     2.7170     0.4320 c3         1 2YB      -0.204400
     30 C31          9.5050     3.6400    -0.0640 c          1 2YB       0.716000
     31 O32         10.6600     3.2910     0.1250 o          1 2YB      -0.738000
     32 O33          9.1940     4.6490    -0.6760 o          1 2YB      -0.738000
     33 C34          7.4760     2.2370    -2.0120 c5         1 2YB       0.161600
     34 O35          6.4590     1.3060    -2.5180 os         1 2YB      -0.358100
     35 C36          6.0530     0.6160    -1.4110 ca         1 2YB       0.164100
     36 C37          4.9210    -0.2030    -1.3680 ca         1 2YB      -0.194000
     37 C38          0.5600    -2.4910     0.7390 ca         1 2YB      -0.078000
     38 H1          -6.1020     0.1250    -1.3380 h1         1 2YB       0.035700
     39 H2          -5.3950     1.3800    -0.2830 h1         1 2YB       0.035700
     40 H3          -8.1670     0.1170     0.0740 hc         1 2YB       0.077200
     41 H4          -7.4660     1.3580     1.1170 hc         1 2YB       0.077200
     42 H5          -7.4160     2.9800    -0.8270 h1         1 2YB       0.094200
     43 H6          -8.1250     1.7230    -1.8840 h1         1 2YB       0.094200
     44 H7         -10.0910     3.4210    -2.6000 h1         1 2YB       0.103700
     45 H8         -11.1230     4.2650    -1.3820 h1         1 2YB       0.103700
     46 H9          -9.3740     4.6910    -1.5310 h1         1 2YB       0.103700
     47 H10         -4.8830    -2.3160     2.2650 ha         1 2YB       0.119000
     48 H11         -2.7150    -4.8200     2.1650 hc         1 2YB       0.046700
     49 H12         -1.6310    -3.6820     2.9850 hc         1 2YB       0.046700
     50 H13         -3.3460    -3.7210     3.3980 hc         1 2YB       0.046700
     51 H14          2.8060    -5.0410     0.3420 ha         1 2YB       0.118000
     52 H15          2.8930    -1.6970     1.8570 h1         1 2YB       0.039200
     53 H16          3.8640    -3.0930     1.3360 h1         1 2YB       0.039200
     54 H17          7.2490     0.2280     1.7510 ha         1 2YB       0.115000
     55 H18          8.9380     1.0640    -0.8350 hc         1 2YB       0.071700
     56 H19         -0.4610    -0.5040    -1.2310 hc         1 2YB       0.046700
     57 H20         -0.8420    -2.0240    -2.0600 hc         1 2YB       0.046700
     58 H21         -1.7650    -0.5660    -2.4230 hc         1 2YB       0.046700
     59 H22         -3.7150    -0.0570    -1.2140 ha         1 2YB       0.119000
     60 H23         -1.4790    -5.0970    -0.1200 ha         1 2YB       0.111000
     61 H24          0.7090    -6.2730    -0.1770 ha         1 2YB       0.110000
     62 H25          5.2400    -1.2160     1.8980 ha         1 2YB       0.103000
     63 H26          7.4670     3.2950     0.6120 hc         1 2YB       0.027700
     64 H27          8.7210     2.1560     1.3110 hc         1 2YB       0.027700
     65 H29          6.9850     3.2050    -1.8450 h1         1 2YB       0.070700
     66 H30          8.2600     2.3820    -2.7670 h1         1 2YB       0.070700
     67 H31          4.2900    -0.3180    -2.2450 ha         1 2YB       0.129000
     68 H32          0.5190    -1.4350     0.9950 ha         1 2YB       0.120000
@<TRIPOS>BOND
     1     1     6 ar  
     2     1    17 ar  
     3     1    18 1   
     4     2     3 1   
     5     2    18 1   
     6     2    38 1   
     7     2    39 1   
     8     3     4 1   
     9     3    40 1   
    10     3    41 1   
    11     4    19 1   
    12     4    42 1   
    13     4    43 1   
    14     5    19 1   
    15     5    44 1   
    16     5    45 1   
    17     5    46 1   
    18     6    22 ar  
    19     6    47 1   
    20     7    22 1   
    21     7    48 1   
    22     7    49 1   
    23     7    50 1   
    24     8    23 1   
    25     8    24 ar  
    26     8    37 ar  
    27     9    10 ar  
    28     9    25 ar  
    29     9    51 1   
    30    10    11 1   
    31    10    37 ar  
    32    11    26 1   
    33    11    52 1   
    34    11    53 1   
    35    12    26 1   
    36    12    27 ar  
    37    12    36 ar  
    38    13    27 ar  
    39    13    28 ar  
    40    13    54 1   
    41    14    28 1   
    42    14    29 1   
    43    14    33 1   
    44    14    55 1   
    45    15    16 1   
    46    15    56 1   
    47    15    57 1   
    48    15    58 1   
    49    16    17 ar  
    50    16    23 ar  
    51    17    59 1   
    52    19    20 2   
    53    19    21 2   
    54    22    23 ar  
    55    24    25 ar  
    56    24    60 1   
    57    25    61 1   
    58    27    62 1   
    59    28    35 ar  
    60    29    30 1   
    61    29    63 1   
    62    29    64 1   
    63    30    31 1   
    64    30    32 1   
    65    33    34 1   
    66    33    65 1   
    67    33    66 1   
    68    34    35 1   
    69    35    36 ar  
    70    36    67 1   
    71    37    68 1   
@<TRIPOS>SUBSTRUCTURE
     1 2YB         1 TEMP              0 ****  ****    0 ROOT
