@<TRIPOS>MOLECULE
2YB
   68    71     1     0     0
SMALL
abcg2


@<TRIPOS>ATOM
      1 C4          -4.5110    -1.1390     0.5440 ca         1 2YB       0.147100
      2 C6          -6.1700     0.3860    -0.2150 c3         1 2YB       0.172600
      3 C7          -7.5180     0.8990     0.2530 c3         1 2YB      -0.055400
      4 C8          -8.0300     1.9410    -0.7320 c3         1 2YB      -0.301400
      5 C10        -10.0450     3.7510    -1.4680 c3         1 2YB      -0.338100
      6 C13         -4.0990    -2.0380     1.5250 ca         1 2YB      -0.180500
      7 C15         -2.4450    -3.6240     2.5170 c3         1 2YB      -0.051300
      8 C17         -0.6880    -3.0350     0.2630 cp         1 2YB      -0.039000
      9 C20          1.8310    -4.2260     0.0870 ca         1 2YB      -0.083000
     10 C21          1.7150    -2.9290     0.5760 ca         1 2YB      -0.086300
     11 C22          2.9360    -2.1530     0.9670 c3         1 2YB       0.212900
     12 C24          4.6130    -0.8680    -0.1350 ca         1 2YB       0.148100
     13 C26          6.4330     0.1910     1.0440 ca         1 2YB      -0.029000
     14 C28          8.1360     1.5100    -0.4770 c5         1 2YB      -0.003400
     15 C1          -1.5510    -1.1830    -1.8100 c3         1 2YB      -0.051300
     16 C2          -2.4330    -1.4940    -0.6340 ca         1 2YB      -0.017800
     17 C3          -3.6790    -0.8730    -0.5360 ca         1 2YB      -0.180500
     18 O5          -5.7250    -0.5760     0.7220 os         1 2YB      -0.350100
     19 S9          -9.6050     2.5980    -0.1890 s6         1 2YB       1.084000
     20 O11        -10.5860     1.5110    -0.1790 o          1 2YB      -0.514500
     21 O12         -9.3940     3.3350     1.0580 o          1 2YB      -0.514500
     22 C14         -2.8650    -2.6650     1.4410 ca         1 2YB      -0.017800
     23 C16         -2.0220    -2.3880     0.3550 cp         1 2YB      -0.077000
     24 C18         -0.5520    -4.3330    -0.2230 ca         1 2YB      -0.097000
     25 C19          0.7010    -4.9260    -0.3090 ca         1 2YB      -0.122000
     26 O23          3.4880    -1.6100    -0.2240 os         1 2YB      -0.352100
     27 C25          5.2740    -0.5890     1.0590 ca         1 2YB      -0.251000
     28 C27          6.9200     0.6880    -0.1440 ca         1 2YB      -0.180300
     29 C30          8.2990     2.7570     0.3770 c3         1 2YB      -0.204400
     30 C31          9.5160     3.6290     0.0260 c          1 2YB       0.716000
     31 O32          9.7230     4.6060     0.7730 o          1 2YB      -0.738000
     32 O33         10.1900     3.3030    -0.9720 o          1 2YB      -0.738000
     33 C34          7.8790     1.8140    -1.9660 c5         1 2YB       0.161600
     34 O35          6.8200     0.9360    -2.4100 os         1 2YB      -0.358100
     35 C36          6.2410     0.3970    -1.3230 ca         1 2YB       0.164100
     36 C37          5.0940    -0.3690    -1.3530 ca         1 2YB      -0.194000
     37 C38          0.4560    -2.3460     0.6570 ca         1 2YB      -0.078000
     38 H1          -6.2600    -0.0570    -1.2140 h1         1 2YB       0.035700
     39 H2          -5.4550     1.2140    -0.2840 h1         1 2YB       0.035700
     40 H3          -8.2250     0.0700     0.3200 hc         1 2YB       0.077200
     41 H4          -7.4170     1.3400     1.2460 hc         1 2YB       0.077200
     42 H5          -7.3470     2.7880    -0.8180 h1         1 2YB       0.094200
     43 H6          -8.1850     1.5180    -1.7260 h1         1 2YB       0.094200
     44 H7         -10.1230     3.2250    -2.4170 h1         1 2YB       0.103700
     45 H8         -11.0090     4.1790    -1.1980 h1         1 2YB       0.103700
     46 H9          -9.2930     4.5340    -1.5270 h1         1 2YB       0.103700
     47 H10         -4.7550    -2.2400     2.3640 ha         1 2YB       0.119000
     48 H11         -2.3210    -4.6350     2.1270 hc         1 2YB       0.046700
     49 H12         -1.4880    -3.3390     2.9570 hc         1 2YB       0.046700
     50 H13         -3.1830    -3.6670     3.3170 hc         1 2YB       0.046700
     51 H14          2.8070    -4.6940     0.0190 ha         1 2YB       0.118000
     52 H15          2.6750    -1.3520     1.6670 h1         1 2YB       0.039200
     53 H16          3.6640    -2.8040     1.4620 h1         1 2YB       0.039200
     54 H17          6.9390     0.3960     1.9790 ha         1 2YB       0.115000
     55 H18          9.0330     0.8920    -0.3770 hc         1 2YB       0.071700
     56 H19         -0.6660    -0.6210    -1.5070 hc         1 2YB       0.046700
     57 H20         -1.1930    -2.0920    -2.2950 hc         1 2YB       0.046700
     58 H21         -2.0800    -0.5900    -2.5540 hc         1 2YB       0.046700
     59 H22         -3.9760    -0.1880    -1.3200 ha         1 2YB       0.119000
     60 H23         -1.4320    -4.8820    -0.5350 ha         1 2YB       0.111000
     61 H24          0.7960    -5.9350    -0.6870 ha         1 2YB       0.110000
     62 H25          4.9100    -0.9630     2.0060 ha         1 2YB       0.103000
     63 H26          7.3950     3.3720     0.2980 hc         1 2YB       0.027700
     64 H27          8.3650     2.4730     1.4330 hc         1 2YB       0.027700
     65 H29          7.5460     2.8450    -2.1110 h1         1 2YB       0.070700
     66 H30          8.7460     1.6410    -2.5980 h1         1 2YB       0.070700
     67 H31          4.5740    -0.5830    -2.2780 ha         1 2YB       0.129000
     68 H32          0.3610    -1.3350     1.0380 ha         1 2YB       0.120000
@<TRIPOS>BOND
     1     1     6 ar  
     2     1    17 ar  
     3     1    18 1   
     4     2     3 1   
     5     2    18 1   
     6     2    38 1   
     7     2    39 1   
     8     3     4 1   
     9     3    40 1   
    10     3    41 1   
    11     4    19 1   
    12     4    42 1   
    13     4    43 1   
    14     5    19 1   
    15     5    44 1   
    16     5    45 1   
    17     5    46 1   
    18     6    22 ar  
    19     6    47 1   
    20     7    22 1   
    21     7    48 1   
    22     7    49 1   
    23     7    50 1   
    24     8    23 1   
    25     8    24 ar  
    26     8    37 ar  
    27     9    10 ar  
    28     9    25 ar  
    29     9    51 1   
    30    10    11 1   
    31    10    37 ar  
    32    11    26 1   
    33    11    52 1   
    34    11    53 1   
    35    12    26 1   
    36    12    27 ar  
    37    12    36 ar  
    38    13    27 ar  
    39    13    28 ar  
    40    13    54 1   
    41    14    28 1   
    42    14    29 1   
    43    14    33 1   
    44    14    55 1   
    45    15    16 1   
    46    15    56 1   
    47    15    57 1   
    48    15    58 1   
    49    16    17 ar  
    50    16    23 ar  
    51    17    59 1   
    52    19    20 2   
    53    19    21 2   
    54    22    23 ar  
    55    24    25 ar  
    56    24    60 1   
    57    25    61 1   
    58    27    62 1   
    59    28    35 ar  
    60    29    30 1   
    61    29    63 1   
    62    29    64 1   
    63    30    31 1   
    64    30    32 1   
    65    33    34 1   
    66    33    65 1   
    67    33    66 1   
    68    34    35 1   
    69    35    36 ar  
    70    36    67 1   
    71    37    68 1   
@<TRIPOS>SUBSTRUCTURE
     1 2YB         1 TEMP              0 ****  ****    0 ROOT
