@<TRIPOS>MOLECULE
2YC
   38    38     1     0     0
SMALL
abcg2


@<TRIPOS>ATOM
      1 O2          -6.0460    -0.1970    -1.6660 o          1 2YC      -0.735500
      2 C6          -5.9060    -0.3800    -0.4380 c          1 2YC       0.691000
      3 O1          -6.5970    -1.1300     0.2810 o          1 2YC      -0.735500
      4 C5          -4.7440     0.3920     0.2350 c3         1 2YC       0.014500
      5 N1          -4.7490     0.3860     1.6900 n8         1 2YC      -1.001200
      6 C4          -3.4100    -0.1460    -0.2880 c3         1 2YC      -0.050400
      7 C3          -2.1960     0.6410     0.1860 c3         1 2YC      -0.071400
      8 C2          -0.8880     0.0700    -0.3460 c3         1 2YC      -0.096400
      9 C1           0.3180     0.8670     0.1220 c3         1 2YC       0.101000
     10 N            1.5470     0.2630    -0.3500 ns         1 2YC      -0.501900
     11 C            2.7600     0.7440    -0.0540 c          1 2YC       0.610100
     12 O            2.9340     1.7590     0.6060 o          1 2YC      -0.599100
     13 C7           3.9260    -0.0970    -0.5380 c5         1 2YC       0.005500
     14 C10          4.4840    -0.9930     0.5970 c5         1 2YC      -0.083700
     15 C11          3.9020    -2.3950     0.6210 c3         1 2YC      -0.083100
     16 C9           5.9950    -0.9170     0.3520 c5         1 2YC      -0.174700
     17 C8           6.1010     0.3050    -0.5050 c2         1 2YC       0.391200
     18 N2           5.0200     0.7580    -0.9820 n2         1 2YC      -0.526900
     19 H2          -4.8220     1.4380    -0.0860 h1         1 2YC       0.038700
     20 H3          -5.6050     0.8210     2.0130 hn         1 2YC       0.381000
     21 H4          -4.8280    -0.5770     2.0000 hn         1 2YC       0.381000
     22 H6          -3.3010    -1.1950     0.0140 hc         1 2YC       0.037200
     23 H7          -3.4390    -0.1450    -1.3800 hc         1 2YC       0.037200
     24 H8          -2.2960     1.6850    -0.1330 hc         1 2YC       0.041700
     25 H9          -2.1740     0.6570     1.2780 hc         1 2YC       0.041700
     26 H10         -0.7850    -0.9700    -0.0180 hc         1 2YC       0.035700
     27 H11         -0.9100     0.0510    -1.4400 hc         1 2YC       0.035700
     28 H12          0.2440     1.8970    -0.2390 h1         1 2YC       0.049700
     29 H13          0.3290     0.9160     1.2150 h1         1 2YC       0.049700
     30 H14          1.4800    -0.5600    -0.9280 hn         1 2YC       0.309500
     31 H15          3.6130    -0.7120    -1.3920 h1         1 2YC       0.072700
     32 H16          4.2720    -0.5080     1.5540 hc         1 2YC       0.074700
     33 H17          4.3350    -2.9830     1.4320 hc         1 2YC       0.038033
     34 H18          2.8220    -2.3750     0.7760 hc         1 2YC       0.038033
     35 H19          4.0980    -2.9210    -0.3150 hc         1 2YC       0.038033
     36 H20          6.5870    -0.8430     1.2660 hc         1 2YC       0.058700
     37 H21          6.3730    -1.7860    -0.1980 hc         1 2YC       0.058700
     38 H22          7.0510     0.7780    -0.7430 h4         1 2YC       0.026800
@<TRIPOS>BOND
     1     1     2 1   
     2     2     3 1   
     3     2     4 1   
     4     4     5 1   
     5     4     6 1   
     6     4    19 1   
     7     5    20 1   
     8     5    21 1   
     9     6     7 1   
    10     6    22 1   
    11     6    23 1   
    12     7     8 1   
    13     7    24 1   
    14     7    25 1   
    15     8     9 1   
    16     8    26 1   
    17     8    27 1   
    18     9    10 1   
    19     9    28 1   
    20     9    29 1   
    21    10    11 1   
    22    10    30 1   
    23    11    12 2   
    24    11    13 1   
    25    13    14 1   
    26    13    18 1   
    27    13    31 1   
    28    14    15 1   
    29    14    16 1   
    30    14    32 1   
    31    15    33 1   
    32    15    34 1   
    33    15    35 1   
    34    16    17 1   
    35    16    36 1   
    36    16    37 1   
    37    17    18 2   
    38    17    38 1   
@<TRIPOS>SUBSTRUCTURE
     1 2YC         1 TEMP              0 ****  ****    0 ROOT
