@<TRIPOS>MOLECULE
2YC
   38    38     1     0     0
SMALL
No Charge or Current Charge


@<TRIPOS>ATOM
      1 O2          -6.5340     0.2510    -1.5900 o          1 2YC      -0.735500
      2 C6          -5.9640    -0.3770    -0.7080 c          1 2YC       0.691000
      3 O1          -6.3100    -1.4990    -0.3580 o          1 2YC      -0.735500
      4 C5          -4.8270     0.3550     0.1190 c3         1 2YC       0.014500
      5 N1          -5.0080     0.3780     1.6180 n8         1 2YC      -1.001200
      6 C4          -3.4340    -0.2170    -0.2650 c3         1 2YC      -0.050400
      7 C3          -2.2340     0.6370     0.2150 c3         1 2YC      -0.071400
      8 C2          -0.8700     0.0700    -0.2390 c3         1 2YC      -0.096400
      9 C1           0.3210     0.9210     0.2400 c3         1 2YC       0.101000
     10 N            1.5950     0.3580    -0.2030 ns         1 2YC      -0.501900
     11 C            2.8290     0.7850     0.2420 c          1 2YC       0.610100
     12 O            2.9670     1.7010     1.0460 o          1 2YC      -0.599100
     13 C7           3.9590    -0.0580    -0.4470 c5         1 2YC       0.005500
     14 C10          4.6850    -0.9390     0.6270 c5         1 2YC      -0.083700
     15 C11          3.9780    -2.2680     0.9690 c3         1 2YC      -0.083100
     16 C9           6.0660    -1.0890    -0.0450 c5         1 2YC      -0.174700
     17 C8           6.1400     0.1900    -0.8320 c2         1 2YC       0.391200
     18 N2           5.0310     0.7960    -1.0720 n2         1 2YC      -0.526900
     19 H2          -4.8430     1.4030    -0.2120 h1         1 2YC       0.038700
     20 H3          -5.9140     0.8090     1.8370 hn         1 2YC       0.381000
     21 H4          -5.1290    -0.5900     1.9400 hn         1 2YC       0.381000
     22 H6          -3.3370    -1.2380     0.1240 hc         1 2YC       0.037200
     23 H7          -3.3830    -0.2950    -1.3580 hc         1 2YC       0.037200
     24 H8          -2.3430     1.6590    -0.1680 hc         1 2YC       0.041700
     25 H9          -2.2440     0.7020     1.3100 hc         1 2YC       0.041700
     26 H10         -0.7580    -0.9520     0.1440 hc         1 2YC       0.035700
     27 H11         -0.8500     0.0100    -1.3350 hc         1 2YC       0.035700
     28 H12          0.2300     1.9420    -0.1530 h1         1 2YC       0.049700
     29 H13          0.3170     0.9710     1.3380 h1         1 2YC       0.049700
     30 H14          1.5830    -0.4000    -0.8750 hn         1 2YC       0.309500
     31 H15          3.5090    -0.6850    -1.2310 h1         1 2YC       0.072700
     32 H16          4.7940    -0.3810     1.5670 hc         1 2YC       0.074700
     33 H17          4.5690    -2.8540     1.6840 hc         1 2YC       0.038033
     34 H18          2.9940    -2.0880     1.4190 hc         1 2YC       0.038033
     35 H19          3.8300    -2.8830     0.0730 hc         1 2YC       0.038033
     36 H20          6.8830    -1.1750     0.6800 hc         1 2YC       0.058700
     37 H21          6.1160    -1.9530    -0.7180 hc         1 2YC       0.058700
     38 H22          7.0820     0.6020    -1.1830 h4         1 2YC       0.026800
@<TRIPOS>BOND
     1     1     2 1   
     2     2     3 1   
     3     2     4 1   
     4     4     5 1   
     5     4     6 1   
     6     4    19 1   
     7     5    20 1   
     8     5    21 1   
     9     6     7 1   
    10     6    22 1   
    11     6    23 1   
    12     7     8 1   
    13     7    24 1   
    14     7    25 1   
    15     8     9 1   
    16     8    26 1   
    17     8    27 1   
    18     9    10 1   
    19     9    28 1   
    20     9    29 1   
    21    10    11 1   
    22    10    30 1   
    23    11    12 2   
    24    11    13 1   
    25    13    14 1   
    26    13    18 1   
    27    13    31 1   
    28    14    15 1   
    29    14    16 1   
    30    14    32 1   
    31    15    33 1   
    32    15    34 1   
    33    15    35 1   
    34    16    17 1   
    35    16    36 1   
    36    16    37 1   
    37    17    18 2   
    38    17    38 1   
@<TRIPOS>SUBSTRUCTURE
     1 2YC         1 TEMP              0 ****  ****    0 ROOT
