@<TRIPOS>MOLECULE
2YD
   79    82     1     0     0
SMALL
No Charge or Current Charge


@<TRIPOS>ATOM
      1 O1           4.3740     0.6850    -0.5050 oh         1 2YD      -0.521100
      2 C1           3.5260    -0.3720    -0.3110 ce         1 2YD       0.044900
      3 C            4.1480    -1.7120    -0.6640 c          1 2YD       0.557500
      4 O            5.3310    -1.7850    -0.9870 o          1 2YD      -0.556100
      5 C2           2.2470    -0.2330     0.1380 c2         1 2YD      -0.138400
      6 C3           1.4470    -1.5320     0.3230 c5         1 2YD      -0.027300
      7 C22          1.5080     1.0580     0.5360 c6         1 2YD       0.239500
      8 C23          2.3070     2.2750     1.1040 c6         1 2YD      -0.115700
      9 C27          3.1270     1.8780     2.3710 c3         1 2YD      -0.088100
     10 C24          1.3030     3.4380     1.4130 c6         1 2YD       0.177300
     11 O5           1.9990     4.6170     1.8350 oh         1 2YD      -0.654000
     12 C25          0.3580     3.7560     0.2070 c6         1 2YD      -0.075700
     13 C26          1.0880     4.4580    -0.9850 c3         1 2YD      -0.075100
     14 O4           0.6970     1.4760    -0.5730 os         1 2YD      -0.452000
     15 C21         -0.3180     2.4180    -0.2040 c6         1 2YD       0.166300
     16 C20         -1.3500     2.4520    -1.3620 c3         1 2YD      -0.072400
     17 C19         -2.6840     3.1590    -1.0090 c3         1 2YD      -0.069400
     18 C17         -3.9320     2.4880    -1.6470 c3         1 2YD      -0.021500
     19 C18         -5.2250     3.3170    -1.4680 c3         1 2YD      -0.083100
     20 C16         -4.1140     1.0230    -1.2370 c2         1 2YD      -0.217200
     21 C15         -4.2960     0.4690    -0.0170 c2         1 2YD      -0.112400
     22 C28         -4.4080     1.2300     1.2990 c3         1 2YD      -0.053900
     23 C14         -4.4460    -1.0470     0.1550 c3         1 2YD      -0.041200
     24 C12         -3.3080    -1.7390     0.9850 c3         1 2YD      -0.056700
     25 C13         -3.7650    -1.9470     2.4580 c3         1 2YD      -0.092100
     26 C11         -2.8140    -3.0830     0.3320 c3         1 2YD      -0.070400
     27 C9          -1.3170    -3.5520     0.5130 c3         1 2YD      -0.045700
     28 C10         -0.8310    -3.4950     1.9830 c3         1 2YD      -0.092100
     29 C5          -0.2750    -2.9930    -0.5340 c5         1 2YD       0.398000
     30 C4           0.1070    -1.4780    -0.4390 c5         1 2YD      -0.125400
     31 O2          -0.7510    -3.2890    -1.8290 oh         1 2YD      -0.632000
     32 O3           0.9720    -3.7230    -0.4010 os         1 2YD      -0.362100
     33 C6           1.9720    -2.8020    -0.2730 c2         1 2YD       0.159900
     34 C7           3.2530    -2.9100    -0.6710 ce         1 2YD      -0.262400
     35 C8           3.8070    -4.1980    -1.2720 c3         1 2YD      -0.020900
     36 H1           5.2190     0.2900    -0.8220 ho         1 2YD       0.490000
     37 H4           1.2840    -1.6900     1.3950 hc         1 2YD       0.086700
     38 H5           0.8180     0.7590     1.3390 h1         1 2YD       0.018700
     39 H6           3.0180     2.6280     0.3480 hc         1 2YD       0.094700
     40 H7           3.7990     1.0360     2.1740 hc         1 2YD       0.035367
     41 H8           3.7520     2.7070     2.7250 hc         1 2YD       0.035367
     42 H9           2.4660     1.5820     3.1950 hc         1 2YD       0.035367
     43 H10          0.6600     3.0990     2.2390 h1         1 2YD       0.015700
     44 H11          2.5010     4.3710     2.6410 ho         1 2YD       0.443000
     45 H12         -0.4180     4.4520     0.5500 hc         1 2YD       0.057700
     46 H13          1.8440     3.8080    -1.4420 hc         1 2YD       0.040367
     47 H14          0.3810     4.7480    -1.7710 hc         1 2YD       0.040367
     48 H15          1.5910     5.3780    -0.6650 hc         1 2YD       0.040367
     49 H16         -0.8520     2.0120     0.6700 h1         1 2YD       0.022700
     50 H17         -0.9240     2.9050    -2.2630 hc         1 2YD       0.054700
     51 H18         -1.5610     1.4130    -1.6400 hc         1 2YD       0.054700
     52 H19         -2.8000     3.1980     0.0780 hc         1 2YD       0.041700
     53 H20         -2.6200     4.2040    -1.3390 hc         1 2YD       0.041700
     54 H21         -3.7420     2.4900    -2.7290 hc         1 2YD       0.044700
     55 H22         -5.1060     4.3120    -1.9130 hc         1 2YD       0.035033
     56 H23         -6.0670     2.8240    -1.9670 hc         1 2YD       0.035033
     57 H24         -5.4870     3.4520    -0.4140 hc         1 2YD       0.035033
     58 H25         -4.0640     0.3590    -2.1020 ha         1 2YD       0.164000
     59 H26         -4.4950     2.3100     1.1700 hc         1 2YD       0.039033
     60 H27         -5.2960     0.9140     1.8590 hc         1 2YD       0.039033
     61 H28         -3.5300     1.0560     1.9320 hc         1 2YD       0.039033
     62 H29         -5.4190    -1.2740     0.6080 hc         1 2YD       0.046700
     63 H30         -4.5020    -1.5030    -0.8400 hc         1 2YD       0.046700
     64 H31         -2.4720    -1.0390     1.0150 hc         1 2YD       0.044700
     65 H32         -4.5530    -2.7070     2.5170 hc         1 2YD       0.033700
     66 H33         -2.9420    -2.2610     3.1050 hc         1 2YD       0.033700
     67 H34         -4.1670    -1.0230     2.8870 hc         1 2YD       0.033700
     68 H35         -3.4620    -3.8880     0.7040 hc         1 2YD       0.052200
     69 H36         -3.0190    -3.0580    -0.7430 hc         1 2YD       0.052200
     70 H37         -1.3570    -4.6270     0.2930 hc         1 2YD       0.075700
     71 H38         -0.7540    -2.4600     2.3360 hc         1 2YD       0.040367
     72 H39         -1.5210    -4.0390     2.6380 hc         1 2YD       0.040367
     73 H40          0.1550    -3.9640     2.0900 hc         1 2YD       0.040367
     74 H41         -0.6340    -0.8590     0.0620 hc         1 2YD       0.081700
     75 H42          0.2420    -1.0520    -1.4400 hc         1 2YD       0.081700
     76 H43         -0.1290    -3.9690    -2.1600 ho         1 2YD       0.463000
     77 H44          4.4030    -4.0020    -2.1720 hc         1 2YD       0.046367
     78 H45          4.4510    -4.7210    -0.5550 hc         1 2YD       0.046367
     79 H46          3.0110    -4.8940    -1.5640 hc         1 2YD       0.046367
@<TRIPOS>BOND
     1     1     2 1   
     2     1    36 1   
     3     2     3 1   
     4     2     5 2   
     5     3     4 2   
     6     3    34 1   
     7     5     6 1   
     8     5     7 1   
     9     6    30 1   
    10     6    33 1   
    11     6    37 1   
    12     7     8 1   
    13     7    14 1   
    14     7    38 1   
    15     8     9 1   
    16     8    10 1   
    17     8    39 1   
    18     9    40 1   
    19     9    41 1   
    20     9    42 1   
    21    10    11 1   
    22    10    12 1   
    23    10    43 1   
    24    11    44 1   
    25    12    13 1   
    26    12    15 1   
    27    12    45 1   
    28    13    46 1   
    29    13    47 1   
    30    13    48 1   
    31    14    15 1   
    32    15    16 1   
    33    15    49 1   
    34    16    17 1   
    35    16    50 1   
    36    16    51 1   
    37    17    18 1   
    38    17    52 1   
    39    17    53 1   
    40    18    19 1   
    41    18    20 1   
    42    18    54 1   
    43    19    55 1   
    44    19    56 1   
    45    19    57 1   
    46    20    21 2   
    47    20    58 1   
    48    21    22 1   
    49    21    23 1   
    50    22    59 1   
    51    22    60 1   
    52    22    61 1   
    53    23    24 1   
    54    23    62 1   
    55    23    63 1   
    56    24    25 1   
    57    24    26 1   
    58    24    64 1   
    59    25    65 1   
    60    25    66 1   
    61    25    67 1   
    62    26    27 1   
    63    26    68 1   
    64    26    69 1   
    65    27    28 1   
    66    27    29 1   
    67    27    70 1   
    68    28    71 1   
    69    28    72 1   
    70    28    73 1   
    71    29    30 1   
    72    29    31 1   
    73    29    32 1   
    74    30    74 1   
    75    30    75 1   
    76    31    76 1   
    77    32    33 1   
    78    33    34 2   
    79    34    35 1   
    80    35    77 1   
    81    35    78 1   
    82    35    79 1   
@<TRIPOS>SUBSTRUCTURE
     1 2YD         1 TEMP              0 ****  ****    0 ROOT
