@<TRIPOS>MOLECULE
2YD
   79    82     1     0     0
SMALL
abcg2


@<TRIPOS>ATOM
      1 O1           4.3880     0.5810    -0.3610 oh         1 2YD      -0.521100
      2 C1           3.4830    -0.4010    -0.2600 ce         1 2YD       0.044900
      3 C            4.0480    -1.7530    -0.5700 c          1 2YD       0.557500
      4 O            5.2520    -1.7970    -0.8140 o          1 2YD      -0.556100
      5 C2           2.2100    -0.2150     0.1100 c2         1 2YD      -0.138400
      6 C3           1.3290    -1.4160     0.2040 c5         1 2YD      -0.027300
      7 C22          1.5210     1.0600     0.5080 c6         1 2YD       0.239500
      8 C23          2.3200     2.2560     1.0310 c6         1 2YD      -0.115700
      9 C27          3.0880     1.8890     2.2970 c3         1 2YD      -0.088100
     10 C24          1.3100     3.3850     1.3290 c6         1 2YD       0.177300
     11 O5           1.9520     4.5880     1.6880 oh         1 2YD      -0.654000
     12 C25          0.3600     3.6740     0.1600 c6         1 2YD      -0.075700
     13 C26          1.0390     4.3640    -1.0190 c3         1 2YD      -0.075100
     14 O4           0.7270     1.4300    -0.5980 os         1 2YD      -0.452000
     15 C21         -0.2860     2.3430    -0.2270 c6         1 2YD       0.166300
     16 C20         -1.3220     2.3680    -1.3340 c3         1 2YD      -0.072400
     17 C19         -2.6150     3.0760    -0.9240 c3         1 2YD      -0.069400
     18 C17         -3.8540     2.4470    -1.5770 c3         1 2YD      -0.021500
     19 C18         -5.1120     3.2800    -1.3270 c3         1 2YD      -0.083100
     20 C16         -4.0050     0.9790    -1.2260 c2         1 2YD      -0.217200
     21 C15         -4.1950     0.3990    -0.0350 c2         1 2YD      -0.112400
     22 C28         -4.3380     1.1400     1.2620 c3         1 2YD      -0.053900
     23 C14         -4.2730    -1.1090     0.0450 c3         1 2YD      -0.041200
     24 C12         -3.2330    -1.7760     0.9820 c3         1 2YD      -0.056700
     25 C13         -3.7880    -1.9440     2.3970 c3         1 2YD      -0.092100
     26 C11         -2.7670    -3.1450     0.4290 c3         1 2YD      -0.070400
     27 C9          -1.2720    -3.5090     0.5290 c3         1 2YD      -0.045700
     28 C10         -0.7110    -3.2810     1.9290 c3         1 2YD      -0.092100
     29 C5          -0.4050    -2.8990    -0.5860 c5         1 2YD       0.398000
     30 C4          -0.0380    -1.4090    -0.4880 c5         1 2YD      -0.125400
     31 O2          -0.9790    -3.2460    -1.7840 oh         1 2YD      -0.632000
     32 O3           0.9120    -3.5620    -0.5320 os         1 2YD      -0.362100
     33 C6           1.8800    -2.6780    -0.3380 c2         1 2YD       0.159900
     34 C7           3.1750    -2.9000    -0.6430 ce         1 2YD      -0.262400
     35 C8           3.6780    -4.2210    -1.1410 c3         1 2YD      -0.020900
     36 H1           5.2350     0.1530    -0.5770 ho         1 2YD       0.490000
     37 H4           1.1620    -1.5890     1.2770 hc         1 2YD       0.086700
     38 H5           0.8470     0.7750     1.3400 h1         1 2YD       0.018700
     39 H6           3.0180     2.6000     0.2640 hc         1 2YD       0.094700
     40 H7           3.7810     1.0650     2.1360 hc         1 2YD       0.035367
     41 H8           3.6840     2.7260     2.6650 hc         1 2YD       0.035367
     42 H9           2.4020     1.5960     3.0970 hc         1 2YD       0.035367
     43 H10          0.6820     3.0350     2.1670 h1         1 2YD       0.015700
     44 H11          2.3970     4.4600     2.5300 ho         1 2YD       0.443000
     45 H12         -0.4310     4.3310     0.5400 hc         1 2YD       0.057700
     46 H13          1.8290     3.7530    -1.4550 hc         1 2YD       0.040367
     47 H14          0.3180     4.5800    -1.8090 hc         1 2YD       0.040367
     48 H15          1.4790     5.3150    -0.7200 hc         1 2YD       0.040367
     49 H16         -0.7970     1.9470     0.6690 h1         1 2YD       0.022700
     50 H17         -0.9210     2.8040    -2.2520 hc         1 2YD       0.054700
     51 H18         -1.5460     1.3210    -1.5610 hc         1 2YD       0.054700
     52 H19         -2.7280     3.0450     0.1630 hc         1 2YD       0.041700
     53 H20         -2.5680     4.1360    -1.1880 hc         1 2YD       0.041700
     54 H21         -3.6830     2.4770    -2.6590 hc         1 2YD       0.044700
     55 H22         -4.9910     4.2830    -1.7410 hc         1 2YD       0.035033
     56 H23         -5.9850     2.8280    -1.7990 hc         1 2YD       0.035033
     57 H24         -5.3340     3.3930    -0.2660 hc         1 2YD       0.035033
     58 H25         -3.9160     0.3040    -2.0740 ha         1 2YD       0.164000
     59 H26         -4.4900     2.2070     1.1360 hc         1 2YD       0.039033
     60 H27         -5.1840     0.7540     1.8350 hc         1 2YD       0.039033
     61 H28         -3.4520     1.0150     1.8900 hc         1 2YD       0.039033
     62 H29         -5.2770    -1.4050     0.3740 hc         1 2YD       0.046700
     63 H30         -4.1570    -1.5040    -0.9660 hc         1 2YD       0.046700
     64 H31         -2.3740    -1.1010     1.0410 hc         1 2YD       0.044700
     65 H32         -4.6530    -2.6110     2.3820 hc         1 2YD       0.033700
     66 H33         -3.0500    -2.3780     3.0720 hc         1 2YD       0.033700
     67 H34         -4.1100    -0.9990     2.8330 hc         1 2YD       0.033700
     68 H35         -3.3090    -3.9300     0.9640 hc         1 2YD       0.052200
     69 H36         -3.0740    -3.2510    -0.6120 hc         1 2YD       0.052200
     70 H37         -1.2250    -4.5890     0.3450 hc         1 2YD       0.075700
     71 H38         -0.7580    -2.2350     2.2400 hc         1 2YD       0.040367
     72 H39         -1.2940    -3.8530     2.6510 hc         1 2YD       0.040367
     73 H40          0.3210    -3.6160     2.0230 hc         1 2YD       0.040367
     74 H41         -0.7890    -0.8260     0.0360 hc         1 2YD       0.081700
     75 H42          0.0610    -0.9820    -1.4890 hc         1 2YD       0.081700
     76 H43         -0.5900    -2.7360    -2.5030 ho         1 2YD       0.463000
     77 H44          4.7100    -4.1460    -1.4760 hc         1 2YD       0.046367
     78 H45          3.6390    -4.9850    -0.3630 hc         1 2YD       0.046367
     79 H46          3.0810    -4.5820    -1.9800 hc         1 2YD       0.046367
@<TRIPOS>BOND
     1     1     2 1   
     2     1    36 1   
     3     2     3 1   
     4     2     5 2   
     5     3     4 2   
     6     3    34 1   
     7     5     6 1   
     8     5     7 1   
     9     6    30 1   
    10     6    33 1   
    11     6    37 1   
    12     7     8 1   
    13     7    14 1   
    14     7    38 1   
    15     8     9 1   
    16     8    10 1   
    17     8    39 1   
    18     9    40 1   
    19     9    41 1   
    20     9    42 1   
    21    10    11 1   
    22    10    12 1   
    23    10    43 1   
    24    11    44 1   
    25    12    13 1   
    26    12    15 1   
    27    12    45 1   
    28    13    46 1   
    29    13    47 1   
    30    13    48 1   
    31    14    15 1   
    32    15    16 1   
    33    15    49 1   
    34    16    17 1   
    35    16    50 1   
    36    16    51 1   
    37    17    18 1   
    38    17    52 1   
    39    17    53 1   
    40    18    19 1   
    41    18    20 1   
    42    18    54 1   
    43    19    55 1   
    44    19    56 1   
    45    19    57 1   
    46    20    21 2   
    47    20    58 1   
    48    21    22 1   
    49    21    23 1   
    50    22    59 1   
    51    22    60 1   
    52    22    61 1   
    53    23    24 1   
    54    23    62 1   
    55    23    63 1   
    56    24    25 1   
    57    24    26 1   
    58    24    64 1   
    59    25    65 1   
    60    25    66 1   
    61    25    67 1   
    62    26    27 1   
    63    26    68 1   
    64    26    69 1   
    65    27    28 1   
    66    27    29 1   
    67    27    70 1   
    68    28    71 1   
    69    28    72 1   
    70    28    73 1   
    71    29    30 1   
    72    29    31 1   
    73    29    32 1   
    74    30    74 1   
    75    30    75 1   
    76    31    76 1   
    77    32    33 1   
    78    33    34 2   
    79    34    35 1   
    80    35    77 1   
    81    35    78 1   
    82    35    79 1   
@<TRIPOS>SUBSTRUCTURE
     1 2YD         1 TEMP              0 ****  ****    0 ROOT
