@<TRIPOS>MOLECULE
2YE
   37    39     1     0     0
SMALL
No Charge or Current Charge


@<TRIPOS>ATOM
      1 C4         -36.2890   -16.1090   -17.8100 c          1 2YE       0.627700
      2 C6         -34.9570   -15.5300   -17.3950 ca         1 2YE      -0.217600
      3 C7         -34.2690   -14.6430   -18.2560 ca         1 2YE      -0.035000
      4 C8         -33.0210   -14.0740   -17.9000 cp         1 2YE      -0.085000
      5 C10        -33.1650   -15.2720   -15.7680 ca         1 2YE      -0.197000
      6 C13        -32.3020   -13.1440   -18.8290 cp         1 2YE      -0.105000
      7 C15        -30.8700   -11.2740   -19.2920 ca         1 2YE      -0.135800
      8 C17        -29.6250    -9.6510   -20.3790 cc         1 2YE      -0.153100
      9 C20        -31.0160   -11.4850   -20.6420 ca         1 2YE       0.364500
     10 C22        -32.3940   -13.2850   -20.2490 ca         1 2YE       0.363900
     11 C1         -37.8290   -16.8230   -19.6490 c3         1 2YE       0.086800
     12 C11        -34.3980   -15.8240   -16.1360 ca         1 2YE       0.348000
     13 C14        -31.4970   -12.0820   -18.3400 ca         1 2YE      -0.021000
     14 C16        -30.0050   -10.1320   -19.1390 cd         1 2YE      -0.233200
     15 C3         -35.3450   -16.9330   -20.0000 c3         1 2YE       0.086800
     16 C9         -32.4790   -14.4100   -16.6370 ca         1 2YE      -0.041000
     17 N18        -30.2720   -10.5170   -21.2910 na         1 2YE      -0.326400
     18 N2         -36.4780   -16.4590   -19.1690 n          1 2YE      -0.402800
     19 N21        -31.7670   -12.4780   -21.1470 nb         1 2YE      -0.681000
     20 O5         -37.2210   -16.1870   -17.0160 o          1 2YE      -0.624100
     21 H1         -34.7240   -14.3630   -19.2020 ha         1 2YE       0.118000
     22 H2         -32.7270   -15.5130   -14.8030 ha         1 2YE       0.115000
     23 H3         -34.7070   -16.6710   -14.2880 hn         1 2YE       0.467500
     24 H4         -36.0160   -16.8300   -15.4100 hn         1 2YE       0.467500
     25 H5         -28.9890    -8.8170   -20.6730 h4         1 2YE       0.215000
     26 H6         -32.9870   -14.0890   -20.6830 h4         1 2YE       0.016100
     27 H7         -38.5560   -16.0660   -19.3280 h1         1 2YE       0.042533
     28 H8         -37.8410   -16.8760   -20.7450 h1         1 2YE       0.042533
     29 H9         -38.1180   -17.7990   -19.2380 h1         1 2YE       0.042533
     30 H10        -31.3780   -11.8890   -17.2770 ha         1 2YE       0.122000
     31 H11        -29.6910    -9.7030   -18.1880 ha         1 2YE       0.208000
     32 H12        -34.4990   -17.2310   -19.3680 h1         1 2YE       0.042533
     33 H13        -35.6520   -17.8040   -20.5930 h1         1 2YE       0.042533
     34 H14        -35.0270   -16.1370   -20.6840 h1         1 2YE       0.042533
     35 H15        -31.5170   -14.0080   -16.3290 ha         1 2YE       0.114000
     36 H16        -30.2140   -10.4550   -22.3000 hn         1 2YE       0.360000
     37 N12        -35.0210   -16.6610   -15.2560 nv         1 2YE      -1.076000
@<TRIPOS>BOND
     1     1     2 1   
     2     1    18 1   
     3     1    20 2   
     4     2     3 ar  
     5     2    12 ar  
     6     3     4 ar  
     7     3    21 1   
     8     4     6 1   
     9     4    16 ar  
    10     5    12 ar  
    11     5    16 ar  
    12     5    22 1   
    13     6    10 ar  
    14     6    13 ar  
    15     7     9 ar  
    16     7    13 ar  
    17     7    14 1   
    18     8    14 2   
    19     8    17 1   
    20     8    25 1   
    21     9    17 1   
    22     9    19 ar  
    23    10    19 ar  
    24    10    26 1   
    25    11    18 1   
    26    11    27 1   
    27    11    28 1   
    28    11    29 1   
    29    12    37 1   
    30    13    30 1   
    31    14    31 1   
    32    15    18 1   
    33    15    32 1   
    34    15    33 1   
    35    15    34 1   
    36    16    35 1   
    37    17    36 1   
    38    23    37 1   
    39    24    37 1   
@<TRIPOS>SUBSTRUCTURE
     1 2YE         1 TEMP              0 ****  ****    0 ROOT
