@<TRIPOS>MOLECULE
2YE
   37    39     1     0     0
SMALL
bcc


@<TRIPOS>ATOM
      1 C4         -36.2870   -15.9430   -17.8660 c          1 2YE       0.694700
      2 C6         -34.9220   -15.4960   -17.4560 ca         1 2YE      -0.217600
      3 C7         -34.2210   -14.6170   -18.2750 ca         1 2YE      -0.053000
      4 C8         -32.9830   -14.0910   -17.9200 cp         1 2YE      -0.085000
      5 C10        -33.1400   -15.3440   -15.8530 ca         1 2YE      -0.215000
      6 C13        -32.2640   -13.1580   -18.8060 cp         1 2YE      -0.170300
      7 C15        -30.9090   -11.2290   -19.1970 ca         1 2YE      -0.201100
      8 C17        -29.7850    -9.7070   -20.3900 cc         1 2YE      -0.103100
      9 C20        -31.0150   -11.5480   -20.5710 ca         1 2YE       0.429800
     10 C22        -32.2730   -13.3580   -20.2010 ca         1 2YE       0.429200
     11 C1         -37.7630   -16.7280   -19.6070 c3         1 2YE       0.086800
     12 C11        -34.3960   -15.8610   -16.2030 ca         1 2YE       0.209600
     13 C14        -31.5620   -12.0690   -18.3020 ca         1 2YE      -0.039000
     14 C16        -30.1170   -10.0440   -19.1100 cd         1 2YE      -0.183200
     15 C3         -35.3520   -16.9620   -19.9250 c3         1 2YE       0.086800
     16 C9         -32.4560   -14.4850   -16.6880 ca         1 2YE      -0.059000
     17 N18        -30.3220   -10.6080   -21.2680 na         1 2YE      -0.276100
     18 N2         -36.4330   -16.4580   -19.1020 n          1 2YE      -0.469800
     19 N21        -31.6700   -12.5770   -21.0820 nb         1 2YE      -0.681000
     20 O5         -37.2390   -15.7980   -17.1010 o          1 2YE      -0.624100
     21 H1         -34.6750   -14.3170   -19.2120 ha         1 2YE       0.136000
     22 H2         -32.7000   -15.6280   -14.9030 ha         1 2YE       0.133000
     23 H3         -34.6980   -16.7730   -14.4220 hn         1 2YE       0.412300
     24 H4         -36.0350   -16.7820   -15.4310 hn         1 2YE       0.412300
     25 H5         -29.1960    -8.8800   -20.7510 h4         1 2YE       0.165000
     26 H6         -32.7950   -14.2170   -20.6100 h4         1 2YE       0.016100
     27 H7         -38.4920   -16.0620   -19.1540 h1         1 2YE       0.042533
     28 H8         -37.7730   -16.5670   -20.6840 h1         1 2YE       0.042533
     29 H9         -38.0660   -17.7600   -19.4130 h1         1 2YE       0.042533
     30 H10        -31.5410   -11.8700   -17.2370 ha         1 2YE       0.140000
     31 H11        -29.8290    -9.5120   -18.2170 ha         1 2YE       0.158000
     32 H12        -34.4250   -17.0290   -19.3650 h1         1 2YE       0.042533
     33 H13        -35.6050   -17.9650   -20.2710 h1         1 2YE       0.042533
     34 H14        -35.1870   -16.3320   -20.8020 h1         1 2YE       0.042533
     35 H15        -31.4850   -14.1210   -16.3750 ha         1 2YE       0.132000
     36 H16        -30.2260   -10.5770   -22.2700 hn         1 2YE       0.309700
     37 N12        -35.0300   -16.7510   -15.3730 nv         1 2YE      -0.827200
@<TRIPOS>BOND
     1     1     2 1   
     2     1    18 1   
     3     1    20 2   
     4     2     3 ar  
     5     2    12 ar  
     6     3     4 ar  
     7     3    21 1   
     8     4     6 1   
     9     4    16 ar  
    10     5    12 ar  
    11     5    16 ar  
    12     5    22 1   
    13     6    10 ar  
    14     6    13 ar  
    15     7     9 ar  
    16     7    13 ar  
    17     7    14 1   
    18     8    14 2   
    19     8    17 1   
    20     8    25 1   
    21     9    17 1   
    22     9    19 ar  
    23    10    19 ar  
    24    10    26 1   
    25    11    18 1   
    26    11    27 1   
    27    11    28 1   
    28    11    29 1   
    29    12    37 1   
    30    13    30 1   
    31    14    31 1   
    32    15    18 1   
    33    15    32 1   
    34    15    33 1   
    35    15    34 1   
    36    16    35 1   
    37    17    36 1   
    38    23    37 1   
    39    24    37 1   
@<TRIPOS>SUBSTRUCTURE
     1 2YE         1 TEMP              0 ****  ****    0 ROOT
