@<TRIPOS>MOLECULE
2YF
   38    38     1     0     0
SMALL
No Charge or Current Charge


@<TRIPOS>ATOM
      1 O2           6.1560     0.2920     1.8150 o          1 2YF      -0.735000
      2 C11          5.8820     0.6400     0.6730 c          1 2YF       0.692000
      3 O1           6.4700     1.5420     0.0930 o          1 2YF      -0.735000
      4 C            4.8240    -0.2140    -0.1420 c3         1 2YF       0.013500
      5 N            5.0480    -1.7070    -0.1570 n8         1 2YF      -1.001200
      6 C1           3.3830     0.1290     0.3270 c3         1 2YF      -0.050400
      7 C2           2.2620    -0.3790    -0.6140 c3         1 2YF      -0.071400
      8 C3           0.8490     0.0370    -0.1490 c3         1 2YF      -0.095400
      9 C4          -0.2640    -0.4680    -1.0900 c3         1 2YF       0.101000
     10 N1          -1.5940    -0.0390    -0.6500 ns         1 2YF      -0.501900
     11 C5          -2.3280    -0.6400     0.3570 c          1 2YF       0.609100
     12 O           -1.9050    -1.6300     0.9440 o          1 2YF      -0.601100
     13 C6          -3.7210    -0.0050     0.7120 c6         1 2YF       0.028500
     14 N2          -4.8480    -0.9920     0.7570 n2         1 2YF      -0.553900
     15 C10         -6.0640    -0.6580     0.4660 c2         1 2YF       0.418200
     16 C9          -6.5170     0.7280     0.0210 c6         1 2YF      -0.175700
     17 C8          -5.4550     1.8150     0.2860 c6         1 2YF      -0.073400
     18 C7          -4.0680     1.2750    -0.1130 c6         1 2YF      -0.098400
     19 H2           4.9080     0.1220    -1.1860 h1         1 2YF       0.036700
     20 H3           5.9890    -1.9000    -0.5210 hn         1 2YF       0.381500
     21 H4           5.1060    -2.0310     0.8170 hn         1 2YF       0.381500
     22 H6           3.2230    -0.2680     1.3370 hc         1 2YF       0.037200
     23 H7           3.2970     1.2200     0.4050 hc         1 2YF       0.037200
     24 H8           2.4380     0.0100    -1.6250 hc         1 2YF       0.041700
     25 H9           2.3060    -1.4730    -0.6800 hc         1 2YF       0.041700
     26 H10          0.6740    -0.3500     0.8620 hc         1 2YF       0.035700
     27 H11          0.7960     1.1310    -0.0880 hc         1 2YF       0.035700
     28 H12         -0.0910    -0.0790    -2.1020 h1         1 2YF       0.050200
     29 H13         -0.2380    -1.5650    -1.1420 h1         1 2YF       0.050200
     30 H14         -2.0080     0.7690    -1.0970 hn         1 2YF       0.309500
     31 H15         -3.5780     0.3310     1.7490 h1         1 2YF       0.065700
     32 H16         -6.8440    -1.4140     0.5210 h4         1 2YF       0.012800
     33 H17         -6.7430     0.6890    -1.0530 hc         1 2YF       0.053700
     34 H18         -7.4560     0.9880     0.5270 hc         1 2YF       0.053700
     35 H19         -5.6930     2.7280    -0.2770 hc         1 2YF       0.043200
     36 H20         -5.4540     2.0880     1.3510 hc         1 2YF       0.043200
     37 H21         -3.3100     2.0540     0.0550 hc         1 2YF       0.059700
     38 H22         -4.0660     1.0500    -1.1890 hc         1 2YF       0.059700
@<TRIPOS>BOND
     1     1     2 1   
     2     2     3 1   
     3     2     4 1   
     4     4     5 1   
     5     4     6 1   
     6     4    19 1   
     7     5    20 1   
     8     5    21 1   
     9     6     7 1   
    10     6    22 1   
    11     6    23 1   
    12     7     8 1   
    13     7    24 1   
    14     7    25 1   
    15     8     9 1   
    16     8    26 1   
    17     8    27 1   
    18     9    10 1   
    19     9    28 1   
    20     9    29 1   
    21    10    11 1   
    22    10    30 1   
    23    11    12 2   
    24    11    13 1   
    25    13    14 1   
    26    13    18 1   
    27    13    31 1   
    28    14    15 2   
    29    15    16 1   
    30    15    32 1   
    31    16    17 1   
    32    16    33 1   
    33    16    34 1   
    34    17    18 1   
    35    17    35 1   
    36    17    36 1   
    37    18    37 1   
    38    18    38 1   
@<TRIPOS>SUBSTRUCTURE
     1 2YF         1 TEMP              0 ****  ****    0 ROOT
