@<TRIPOS>MOLECULE
2YF
   38    38     1     0     0
SMALL
abcg2


@<TRIPOS>ATOM
      1 O2           6.8370     0.1360     1.0760 o          1 2YF      -0.735000
      2 C11          6.0350     0.6290     0.2590 c          1 2YF       0.692000
      3 O1           6.0450     1.8010    -0.1740 o          1 2YF      -0.735000
      4 C            4.8920    -0.2760    -0.2670 c3         1 2YF       0.013500
      5 N            5.0360    -1.6950     0.0200 n8         1 2YF      -1.001200
      6 C1           3.5510     0.2340     0.2680 c3         1 2YF      -0.050400
      7 C2           2.3420    -0.4560    -0.3470 c3         1 2YF      -0.071400
      8 C3           1.0250     0.0720     0.2050 c3         1 2YF      -0.095400
      9 C4          -0.1760    -0.6110    -0.4280 c3         1 2YF       0.101000
     10 N1          -1.4110    -0.1000     0.1310 ns         1 2YF      -0.501900
     11 C5          -2.6200    -0.5110    -0.2680 c          1 2YF       0.609100
     12 O           -2.7840    -1.3600    -1.1330 o          1 2YF      -0.601100
     13 C6          -3.8000     0.1900     0.3930 c6         1 2YF       0.028500
     14 N2          -4.7700    -0.8300     0.7480 n2         1 2YF      -0.553900
     15 C10         -6.0020    -0.6020     0.5820 c2         1 2YF       0.418200
     16 C9          -6.6410     0.6480     0.0600 c6         1 2YF      -0.175700
     17 C8          -5.6560     1.8040    -0.0090 c6         1 2YF      -0.073400
     18 C7          -4.3230     1.2910    -0.5310 c6         1 2YF      -0.098400
     19 H2           4.8680    -0.1640    -1.3590 h1         1 2YF       0.036700
     20 H3           5.8760    -2.0340    -0.4340 hn         1 2YF       0.381500
     21 H4           5.2330    -1.7930     1.0100 hn         1 2YF       0.381500
     22 H6           3.5270     0.1070     1.3570 hc         1 2YF       0.037200
     23 H7           3.4870     1.3090     0.0850 hc         1 2YF       0.037200
     24 H8           2.3640    -0.3180    -1.4340 hc         1 2YF       0.041700
     25 H9           2.4090    -1.5330    -0.1760 hc         1 2YF       0.041700
     26 H10          0.9990    -0.0780     1.2900 hc         1 2YF       0.035700
     27 H11          0.9610     1.1520     0.0380 hc         1 2YF       0.035700
     28 H12         -0.1660    -0.4510    -1.5100 h1         1 2YF       0.050200
     29 H13         -0.1130    -1.6910    -0.2690 h1         1 2YF       0.050200
     30 H14         -1.3490     0.5790     0.8730 hn         1 2YF       0.309500
     31 H15         -3.4650     0.6510     1.3310 h1         1 2YF       0.065700
     32 H16         -6.6850    -1.4080     0.8530 h4         1 2YF       0.012800
     33 H17         -7.0550     0.4240    -0.9300 hc         1 2YF       0.053700
     34 H18         -7.5030     0.8870     0.6890 hc         1 2YF       0.053700
     35 H19         -6.0420     2.6010    -0.6450 hc         1 2YF       0.043200
     36 H20         -5.5190     2.2340     0.9880 hc         1 2YF       0.043200
     37 H21         -3.5880     2.0950    -0.5980 hc         1 2YF       0.059700
     38 H22         -4.4540     0.8920    -1.5420 hc         1 2YF       0.059700
@<TRIPOS>BOND
     1     1     2 1   
     2     2     3 1   
     3     2     4 1   
     4     4     5 1   
     5     4     6 1   
     6     4    19 1   
     7     5    20 1   
     8     5    21 1   
     9     6     7 1   
    10     6    22 1   
    11     6    23 1   
    12     7     8 1   
    13     7    24 1   
    14     7    25 1   
    15     8     9 1   
    16     8    26 1   
    17     8    27 1   
    18     9    10 1   
    19     9    28 1   
    20     9    29 1   
    21    10    11 1   
    22    10    30 1   
    23    11    12 2   
    24    11    13 1   
    25    13    14 1   
    26    13    18 1   
    27    13    31 1   
    28    14    15 2   
    29    15    16 1   
    30    15    32 1   
    31    16    17 1   
    32    16    33 1   
    33    16    34 1   
    34    17    18 1   
    35    17    35 1   
    36    17    36 1   
    37    18    37 1   
    38    18    38 1   
@<TRIPOS>SUBSTRUCTURE
     1 2YF         1 TEMP              0 ****  ****    0 ROOT
