@<TRIPOS>MOLECULE
2YG
   44    43     1     0     0
SMALL
abcg2


@<TRIPOS>ATOM
      1 O2          -6.8570    -2.0820     0.1630 o          1 2YG      -0.735000
      2 C11         -6.3170    -1.1690    -0.4930 c          1 2YG       0.692000
      3 O1          -6.4500    -0.9590    -1.7180 o          1 2YG      -0.735000
      4 C           -5.3690    -0.2020     0.2600 c3         1 2YG       0.014500
      5 N           -5.4170    -0.2830     1.7130 n8         1 2YG      -1.001200
      6 C1          -3.9350    -0.4140    -0.2290 c3         1 2YG      -0.051400
      7 C2          -2.9350     0.5960     0.3190 c3         1 2YG      -0.071400
      8 C3          -1.5320     0.3810    -0.2340 c3         1 2YG      -0.096400
      9 C4          -0.5380     1.3900     0.3160 c3         1 2YG       0.097000
     10 N1           0.7760     1.1800    -0.2590 ns         1 2YG      -0.493900
     11 C5           1.8770     1.8110     0.1680 c          1 2YG       0.551100
     12 O            1.8630     2.6240     1.0850 o          1 2YG      -0.625100
     13 C6           3.1790     1.4200    -0.5380 c3         1 2YG       0.086500
     14 N2           4.1170     2.5180    -0.6500 n8         1 2YG      -0.991200
     15 C7           3.8070     0.2460     0.2220 c3         1 2YG      -0.065400
     16 C8           5.0510    -0.3160    -0.4520 c3         1 2YG      -0.070400
     17 C9           5.6320    -1.5110     0.2930 c3         1 2YG      -0.080400
     18 C10          6.8940    -2.0510    -0.3630 c3         1 2YG       0.147800
     19 N3           7.4100    -3.2080     0.3570 n8         1 2YG      -0.993200
     20 H2          -5.6610     0.8190    -0.0180 h1         1 2YG       0.037700
     21 H3          -6.3590    -0.0690     2.0180 hn         1 2YG       0.381000
     22 H4          -5.2870    -1.2540     1.9770 hn         1 2YG       0.381000
     23 H6          -3.6110    -1.4280     0.0400 hc         1 2YG       0.037700
     24 H7          -3.9290    -0.3720    -1.3210 hc         1 2YG       0.037700
     25 H8          -3.2740     1.6080     0.0700 hc         1 2YG       0.041200
     26 H9          -2.9180     0.5390     1.4090 hc         1 2YG       0.041200
     27 H10         -1.1910    -0.6300     0.0080 hc         1 2YG       0.036700
     28 H11         -1.5560     0.4510    -1.3270 hc         1 2YG       0.036700
     29 H12         -0.8820     2.4070     0.1020 h1         1 2YG       0.050200
     30 H13         -0.4800     1.2990     1.4030 h1         1 2YG       0.050200
     31 H14          0.8510     0.5590    -1.0490 hn         1 2YG       0.312500
     32 H15          2.9410     1.0780    -1.5510 h1         1 2YG       0.059700
     33 H16          3.7190     3.2570    -1.2160 hn         1 2YG       0.405500
     34 H17          4.2700     2.9210     0.2670 hn         1 2YG       0.405500
     35 H19          4.0500     0.5710     1.2400 hc         1 2YG       0.048700
     36 H20          3.0590    -0.5470     0.3230 hc         1 2YG       0.048700
     37 H21          4.8020    -0.6130    -1.4770 hc         1 2YG       0.044700
     38 H22          5.8050     0.4710    -0.5350 hc         1 2YG       0.044700
     39 H23          5.8600    -1.2210     1.3250 hc         1 2YG       0.045200
     40 H24          4.8880    -2.3120     0.3530 hc         1 2YG       0.045200
     41 H25          6.6600    -2.3640    -1.3840 h1         1 2YG       0.025200
     42 H26          7.6230    -1.2320    -0.4540 h1         1 2YG       0.025200
     43 H27          8.2400    -3.5480    -0.1110 hn         1 2YG       0.387500
     44 H28          7.7230    -2.9150     1.2750 hn         1 2YG       0.387500
@<TRIPOS>BOND
     1     1     2 1   
     2     2     3 1   
     3     2     4 1   
     4     4     5 1   
     5     4     6 1   
     6     4    20 1   
     7     5    21 1   
     8     5    22 1   
     9     6     7 1   
    10     6    23 1   
    11     6    24 1   
    12     7     8 1   
    13     7    25 1   
    14     7    26 1   
    15     8     9 1   
    16     8    27 1   
    17     8    28 1   
    18     9    10 1   
    19     9    29 1   
    20     9    30 1   
    21    10    11 1   
    22    10    31 1   
    23    11    12 2   
    24    11    13 1   
    25    13    14 1   
    26    13    15 1   
    27    13    32 1   
    28    14    33 1   
    29    14    34 1   
    30    15    16 1   
    31    15    35 1   
    32    15    36 1   
    33    16    17 1   
    34    16    37 1   
    35    16    38 1   
    36    17    18 1   
    37    17    39 1   
    38    17    40 1   
    39    18    19 1   
    40    18    41 1   
    41    18    42 1   
    42    19    43 1   
    43    19    44 1   
@<TRIPOS>SUBSTRUCTURE
     1 2YG         1 TEMP              0 ****  ****    0 ROOT
