@<TRIPOS>MOLECULE
2YG
   44    43     1     0     0
SMALL
No Charge or Current Charge


@<TRIPOS>ATOM
      1 O2          -6.8750    -1.8940    -0.6820 o          1 2YG      -0.735000
      2 C11         -6.7030    -0.6820    -0.7230 c          1 2YG       0.692000
      3 O1          -7.3970     0.0660    -1.3970 o          1 2YG      -0.735000
      4 C           -5.6320    -0.0380     0.2530 c3         1 2YG       0.014500
      5 N           -5.7370    -0.4360     1.7060 n8         1 2YG      -1.001200
      6 C1          -4.1970    -0.2830    -0.2890 c3         1 2YG      -0.051400
      7 C2          -3.1000     0.5780     0.3840 c3         1 2YG      -0.071400
      8 C3          -1.6970     0.3530    -0.2240 c3         1 2YG      -0.096400
      9 C4          -0.6080     1.2110     0.4480 c3         1 2YG       0.097000
     10 N1           0.7070     0.9760    -0.1480 ns         1 2YG      -0.493900
     11 C5           1.8770     1.5530     0.2990 c          1 2YG       0.551100
     12 O            1.8890     2.3430     1.2370 o          1 2YG      -0.625100
     13 C6           3.1710     1.1640    -0.5060 c3         1 2YG       0.086500
     14 N2           3.9480     2.3320    -1.0460 n8         1 2YG      -0.991200
     15 C7           4.0830     0.2450     0.3490 c3         1 2YG      -0.065400
     16 C8           5.2290    -0.4350    -0.4420 c3         1 2YG      -0.070400
     17 C9           6.0810    -1.3880     0.4260 c3         1 2YG      -0.080400
     18 C10          7.2210    -2.0610    -0.3660 c3         1 2YG       0.147800
     19 N3           8.0130    -2.9650     0.4870 n8         1 2YG      -0.993200
     20 H2          -5.8070     1.0470     0.2150 h1         1 2YG       0.037700
     21 H3          -6.6810    -0.2120     2.0460 hn         1 2YG       0.381000
     22 H4          -5.7100    -1.4620     1.7590 hn         1 2YG       0.381000
     23 H6          -3.9440    -1.3450    -0.1880 hc         1 2YG       0.037700
     24 H7          -4.1930    -0.0640    -1.3640 hc         1 2YG       0.037700
     25 H8          -3.3660     1.6390     0.2890 hc         1 2YG       0.041200
     26 H9          -3.0620     0.3520     1.4570 hc         1 2YG       0.041200
     27 H10         -1.4290    -0.7070    -0.1290 hc         1 2YG       0.036700
     28 H11         -1.7270     0.5850    -1.2960 hc         1 2YG       0.036700
     29 H12         -0.8590     2.2750     0.3430 h1         1 2YG       0.050200
     30 H13         -0.5600     0.9710     1.5190 h1         1 2YG       0.050200
     31 H14          0.7740     0.3460    -0.9380 hn         1 2YG       0.312500
     32 H15          2.8340     0.5760    -1.3710 h1         1 2YG       0.059700
     33 H16          3.3330     2.9060    -1.6360 hn         1 2YG       0.405500
     34 H17          4.1740     2.9620    -0.2660 hn         1 2YG       0.405500
     35 H19          4.5040     0.8200     1.1830 hc         1 2YG       0.048700
     36 H20          3.4600    -0.5410     0.7960 hc         1 2YG       0.048700
     37 H21          4.8020    -0.9980    -1.2810 hc         1 2YG       0.044700
     38 H22          5.8830     0.3330    -0.8730 hc         1 2YG       0.044700
     39 H23          6.5070    -0.8240     1.2660 hc         1 2YG       0.045200
     40 H24          5.4320    -2.1620     0.8530 hc         1 2YG       0.045200
     41 H25          6.8000    -2.6420    -1.1980 h1         1 2YG       0.025200
     42 H26          7.8890    -1.2930    -0.7800 h1         1 2YG       0.025200
     43 H27          8.7960    -3.3420    -0.0620 hn         1 2YG       0.387500
     44 H28          8.4750    -2.4130     1.2190 hn         1 2YG       0.387500
@<TRIPOS>BOND
     1     1     2 1   
     2     2     3 1   
     3     2     4 1   
     4     4     5 1   
     5     4     6 1   
     6     4    20 1   
     7     5    21 1   
     8     5    22 1   
     9     6     7 1   
    10     6    23 1   
    11     6    24 1   
    12     7     8 1   
    13     7    25 1   
    14     7    26 1   
    15     8     9 1   
    16     8    27 1   
    17     8    28 1   
    18     9    10 1   
    19     9    29 1   
    20     9    30 1   
    21    10    11 1   
    22    10    31 1   
    23    11    12 2   
    24    11    13 1   
    25    13    14 1   
    26    13    15 1   
    27    13    32 1   
    28    14    33 1   
    29    14    34 1   
    30    15    16 1   
    31    15    35 1   
    32    15    36 1   
    33    16    17 1   
    34    16    37 1   
    35    16    38 1   
    36    17    18 1   
    37    17    39 1   
    38    17    40 1   
    39    18    19 1   
    40    18    41 1   
    41    18    42 1   
    42    19    43 1   
    43    19    44 1   
@<TRIPOS>SUBSTRUCTURE
     1 2YG         1 TEMP              0 ****  ****    0 ROOT
