@<TRIPOS>MOLECULE
2YH
   38    37     1     0     0
SMALL
No Charge or Current Charge


@<TRIPOS>ATOM
      1 O3           1.6730    -1.8920     1.4150 o          1 2YH      -0.624100
      2 C6           1.7050    -1.1800     0.4180 c          1 2YH       0.551100
      3 C7           3.0330    -0.8590    -0.3610 c3         1 2YH       0.087500
      4 N3           3.8230    -2.0670    -0.7780 n8         1 2YH      -0.991200
      5 C8           3.9180     0.1180     0.4580 c3         1 2YH      -0.066400
      6 C9           5.1010     0.7290    -0.3340 c3         1 2YH      -0.074400
      7 C10          5.9220     1.7330     0.5010 c3         1 2YH       0.145800
      8 N2           7.0340     2.3080    -0.2790 n8         1 2YH      -0.994200
      9 N1           0.5570    -0.6370    -0.1210 ns         1 2YH      -0.493900
     10 C5          -0.7830    -0.8210     0.4360 c3         1 2YH       0.095000
     11 C4          -1.8360    -0.0040    -0.3380 c3         1 2YH      -0.097400
     12 C3          -3.2680    -0.1840     0.2270 c3         1 2YH      -0.100400
     13 C2          -4.3750     0.5620    -0.5650 c3         1 2YH       0.020500
     14 N4          -4.1450     2.0500    -0.5000 n8         1 2YH      -0.984200
     15 C1          -5.8170     0.0510    -0.1400 c          1 2YH       0.725000
     16 O2          -6.5030    -0.5190    -0.9800 o          1 2YH      -0.729500
     17 O1          -6.2190     0.3010     0.9910 o          1 2YH      -0.729500
     18 H1           2.7350    -0.3360    -1.2800 h1         1 2YH       0.060700
     19 H2           4.0100    -2.6400     0.0550 hn         1 2YH       0.405000
     20 H3           3.2280    -2.6810    -1.3510 hn         1 2YH       0.405000
     21 H5           3.2850     0.9380     0.8200 hc         1 2YH       0.047700
     22 H6           4.3000    -0.3950     1.3500 hc         1 2YH       0.047700
     23 H7           5.7620    -0.0730    -0.6820 hc         1 2YH       0.053200
     24 H8           4.7110     1.2360    -1.2260 hc         1 2YH       0.053200
     25 H9           5.2720     2.5510     0.8410 h1         1 2YH       0.026200
     26 H10          6.3370     1.2280     1.3850 h1         1 2YH       0.026200
     27 H11          7.5890     2.9210     0.3320 hn         1 2YH       0.387500
     28 H12          7.6900     1.5580    -0.5280 hn         1 2YH       0.387500
     29 H14          0.6600    -0.0720    -0.9560 hn         1 2YH       0.309500
     30 H15         -1.0400    -1.8880     0.3950 h1         1 2YH       0.052200
     31 H16         -0.7760    -0.5080     1.4890 h1         1 2YH       0.052200
     32 H17         -1.5540     1.0550    -0.3050 hc         1 2YH       0.030700
     33 H18         -1.8240    -0.3100    -1.3910 hc         1 2YH       0.030700
     34 H19         -3.5060    -1.2560     0.2220 hc         1 2YH       0.048700
     35 H20         -3.2910     0.1320     1.2780 hc         1 2YH       0.048700
     36 H21         -4.2560     0.2760    -1.6200 h1         1 2YH       0.041700
     37 H22         -4.3220     2.3670     0.4610 hn         1 2YH       0.373000
     38 H23         -3.1470     2.2390    -0.6430 hn         1 2YH       0.373000
@<TRIPOS>BOND
     1     1     2 2   
     2     2     3 1   
     3     2     9 1   
     4     3     4 1   
     5     3     5 1   
     6     3    18 1   
     7     4    19 1   
     8     4    20 1   
     9     5     6 1   
    10     5    21 1   
    11     5    22 1   
    12     6     7 1   
    13     6    23 1   
    14     6    24 1   
    15     7     8 1   
    16     7    25 1   
    17     7    26 1   
    18     8    27 1   
    19     8    28 1   
    20     9    10 1   
    21     9    29 1   
    22    10    11 1   
    23    10    30 1   
    24    10    31 1   
    25    11    12 1   
    26    11    32 1   
    27    11    33 1   
    28    12    13 1   
    29    12    34 1   
    30    12    35 1   
    31    13    14 1   
    32    13    15 1   
    33    13    36 1   
    34    14    37 1   
    35    14    38 1   
    36    15    16 1   
    37    15    17 1   
@<TRIPOS>SUBSTRUCTURE
     1 2YH         1 TEMP              0 ****  ****    0 ROOT
