@<TRIPOS>MOLECULE
2YH
   38    37     1     0     0
SMALL
abcg2


@<TRIPOS>ATOM
      1 O3           1.6530    -2.2320     1.2080 o          1 2YH      -0.624100
      2 C6           1.7120    -1.4730     0.2480 c          1 2YH       0.551100
      3 C7           3.0460    -1.1080    -0.4090 c3         1 2YH       0.087500
      4 N3           3.9990    -2.1970    -0.4090 n8         1 2YH      -0.991200
      5 C8           3.6230     0.1160     0.3100 c3         1 2YH      -0.066400
      6 C9           4.8710     0.6760    -0.3580 c3         1 2YH      -0.074400
      7 C10          5.4300     1.8780     0.3890 c3         1 2YH       0.145800
      8 N2           6.6100     2.4080    -0.2800 n8         1 2YH      -0.994200
      9 N1           0.6330    -0.8760    -0.2760 ns         1 2YH      -0.493900
     10 C5          -0.7150    -1.0680     0.2180 c3         1 2YH       0.095000
     11 C4          -1.6450    -0.0010    -0.3370 c3         1 2YH      -0.097400
     12 C3          -3.0830    -0.2000     0.1230 c3         1 2YH      -0.100400
     13 C2          -4.0720     0.8170    -0.4730 c3         1 2YH       0.020500
     14 N4          -3.7930     2.2070    -0.1490 n8         1 2YH      -0.984200
     15 C1          -5.4940     0.4250    -0.0170 c          1 2YH       0.725000
     16 O2          -6.0120    -0.5480    -0.6010 o          1 2YH      -0.729500
     17 O1          -5.9910     1.0760     0.9240 o          1 2YH      -0.729500
     18 H1           2.8560    -0.8300    -1.4520 h1         1 2YH       0.060700
     19 H2           4.1030    -2.5490     0.5360 hn         1 2YH       0.405000
     20 H3           3.6420    -2.9710    -0.9550 hn         1 2YH       0.405000
     21 H5           2.8560     0.8950     0.3550 hc         1 2YH       0.047700
     22 H6           3.8450    -0.1570     1.3480 hc         1 2YH       0.047700
     23 H7           5.6340    -0.1040    -0.4190 hc         1 2YH       0.053200
     24 H8           4.6390     0.9710    -1.3860 hc         1 2YH       0.053200
     25 H9           4.6730     2.6670     0.4190 h1         1 2YH       0.026200
     26 H10          5.6130     1.5910     1.4350 h1         1 2YH       0.026200
     27 H11          6.9520     3.2120     0.2320 hn         1 2YH       0.387500
     28 H12          7.3550     1.7230    -0.2300 hn         1 2YH       0.387500
     29 H14          0.7500    -0.3160    -1.1050 hn         1 2YH       0.309500
     30 H15         -1.0810    -2.0620    -0.0590 h1         1 2YH       0.052200
     31 H16         -0.7110    -1.0250     1.3090 h1         1 2YH       0.052200
     32 H17         -1.2750     0.9800    -0.0240 hc         1 2YH       0.030700
     33 H18         -1.6080    -0.0180    -1.4320 hc         1 2YH       0.030700
     34 H19         -3.4100    -1.2060    -0.1540 hc         1 2YH       0.048700
     35 H20         -3.1300    -0.1440     1.2180 hc         1 2YH       0.048700
     36 H21         -4.0260     0.7110    -1.5640 h1         1 2YH       0.041700
     37 H22         -3.9460     2.3450     0.8410 hn         1 2YH       0.373000
     38 H23         -2.8200     2.4220    -0.3280 hn         1 2YH       0.373000
@<TRIPOS>BOND
     1     1     2 2   
     2     2     3 1   
     3     2     9 1   
     4     3     4 1   
     5     3     5 1   
     6     3    18 1   
     7     4    19 1   
     8     4    20 1   
     9     5     6 1   
    10     5    21 1   
    11     5    22 1   
    12     6     7 1   
    13     6    23 1   
    14     6    24 1   
    15     7     8 1   
    16     7    25 1   
    17     7    26 1   
    18     8    27 1   
    19     8    28 1   
    20     9    10 1   
    21     9    29 1   
    22    10    11 1   
    23    10    30 1   
    24    10    31 1   
    25    11    12 1   
    26    11    32 1   
    27    11    33 1   
    28    12    13 1   
    29    12    34 1   
    30    12    35 1   
    31    13    14 1   
    32    13    15 1   
    33    13    36 1   
    34    14    37 1   
    35    14    38 1   
    36    15    16 1   
    37    15    17 1   
@<TRIPOS>SUBSTRUCTURE
     1 2YH         1 TEMP              0 ****  ****    0 ROOT
