@<TRIPOS>MOLECULE
2YI
   68    70     1     0     0
SMALL
abcg2


@<TRIPOS>ATOM
      1 O18        -42.8890    26.7970    25.4610 os         1 2YI      -0.433100
      2 C1         -36.9310    28.7150    21.9760 c3         1 2YI      -0.057400
      3 C2         -37.6740    29.8870    22.6540 c3         1 2YI      -0.256000
      4 C3         -37.9960    30.8740    21.5520 c          1 2YI       0.580900
      5 C5         -38.9290    29.4020    23.3840 c          1 2YI       0.631100
      6 C6         -37.6100    28.1140    20.7500 c3         1 2YI      -0.095600
      7 C7         -36.7220    30.6110    23.6410 c3         1 2YI      -0.057400
      8 C8         -36.2970    29.7730    24.8380 c3         1 2YI      -0.095600
      9 C11        -40.7900    30.2770    24.7860 ca         1 2YI      -0.035000
     10 C12        -41.2450    31.4530    25.3870 ca         1 2YI      -0.120000
     11 C17        -43.4070    27.8560    26.0590 c          1 2YI       0.604700
     12 C16        -41.4970    29.0940    24.9930 ca         1 2YI      -0.068000
     13 C15        -42.6280    29.1000    25.8070 ca         1 2YI      -0.122600
     14 C14        -43.0610    30.2680    26.4190 ca         1 2YI      -0.046000
     15 C13        -42.3730    31.4510    26.1920 ca         1 2YI      -0.130600
     16 C20        -43.5570    25.5470    25.6330 c3         1 2YI       0.153900
     17 C21        -42.8040    32.6840    26.9290 c          1 2YI       0.614700
     18 O9         -39.0950    31.2210    21.2060 o          1 2YI      -0.501100
     19 O10        -39.2340    28.2270    23.4400 o          1 2YI      -0.568100
     20 O19        -44.4040    27.8200    26.7390 o          1 2YI      -0.486000
     21 O22        -42.9100    32.6340    28.1460 o          1 2YI      -0.585100
     22 N23        -43.0170    33.8040    26.2080 n          1 2YI      -0.402800
     23 C24        -43.2910    33.8400    24.7810 c6         1 2YI       0.093000
     24 C25        -44.7570    34.1640    24.5390 c6         1 2YI       0.136800
     25 N26        -45.1280    35.4110    25.1800 n3         1 2YI      -0.717600
     26 C27        -44.8670    35.3500    26.6070 c6         1 2YI       0.136800
     27 C28        -43.4020    35.0410    26.8660 c6         1 2YI       0.093000
     28 C29        -46.5040    35.7610    24.8920 c3         1 2YI       0.212100
     29 C30        -46.8450    37.1640    25.3170 ca         1 2YI      -0.075300
     30 C31        -47.9910    37.4260    26.0570 ca         1 2YI      -0.098500
     31 C32        -48.3330    38.7210    26.4260 ca         1 2YI      -0.087500
     32 C33        -47.5060    39.7660    26.0480 ca         1 2YI      -0.016900
     33 C34        -46.3500    39.5330    25.3140 ca         1 2YI      -0.087500
     34 C35        -46.0300    38.2340    24.9540 ca         1 2YI      -0.098500
     35 BR1        -47.9550    41.5340    26.5410 br         1 2YI      -0.101100
     36 H1         -36.7580    27.9370    22.7180 hc         1 2YI       0.048200
     37 H2         -35.9430    29.0840    21.6860 hc         1 2YI       0.048200
     38 H3         -37.0890    31.2610    21.0490 h4         1 2YI      -0.003800
     39 H4         -37.0270    27.2670    20.3880 hc         1 2YI       0.044033
     40 H5         -38.6130    27.7520    20.9680 hc         1 2YI       0.044033
     41 H6         -37.6820    28.8230    19.9240 hc         1 2YI       0.044033
     42 H7         -35.8370    30.9180    23.0770 hc         1 2YI       0.048200
     43 H8         -37.1780    31.5400    23.9960 hc         1 2YI       0.048200
     44 H9         -35.6180    30.3490    25.4660 hc         1 2YI       0.044033
     45 H10        -37.1450    29.4830    25.4590 hc         1 2YI       0.044033
     46 H11        -35.7720    28.8660    24.5390 hc         1 2YI       0.044033
     47 H12        -40.7020    32.3780    25.2280 ha         1 2YI       0.119000
     48 H13        -41.1700    28.1800    24.5290 ha         1 2YI       0.167000
     49 H14        -43.9330    30.2570    27.0590 ha         1 2YI       0.151000
     50 H15        -42.9850    24.8230    25.0610 h1         1 2YI       0.049700
     51 H16        -43.5760    25.2480    26.6810 h1         1 2YI       0.049700
     52 H17        -44.5770    25.5860    25.2510 h1         1 2YI       0.049700
     53 H18        -39.3000    31.3280    23.8990 hn         1 2YI       0.153000
     54 H19        -43.0550    32.8880    24.3140 h1         1 2YI       0.065700
     55 H20        -42.6590    34.6030    24.3190 h1         1 2YI       0.065700
     56 H21        -44.9220    34.2520    23.4630 h1         1 2YI       0.045700
     57 H22        -45.3690    33.3190    24.8970 h1         1 2YI       0.045700
     58 H24        -45.1050    36.3140    27.0620 h1         1 2YI       0.045700
     59 H25        -45.4960    34.5920    27.1040 h1         1 2YI       0.045700
     60 H26        -43.2120    34.9690    27.9330 h1         1 2YI       0.065700
     61 H27        -42.7820    35.8470    26.4650 h1         1 2YI       0.065700
     62 H28        -46.6510    35.6750    23.8110 h1         1 2YI       0.042700
     63 H29        -47.2150    35.0570    25.3560 h1         1 2YI       0.042700
     64 H30        -48.6340    36.6080    26.3600 ha         1 2YI       0.122500
     65 H31        -49.2300    38.8980    27.0050 ha         1 2YI       0.129500
     66 H32        -45.7030    40.3490    25.0200 ha         1 2YI       0.129500
     67 H33        -45.1270    38.0510    24.3860 ha         1 2YI       0.122500
     68 N4         -39.6410    30.3840    24.0000 ns         1 2YI      -0.139000
@<TRIPOS>BOND
     1     1    11 1   
     2     1    16 1   
     3     2     3 1   
     4     2     6 1   
     5     2    36 1   
     6     2    37 1   
     7     3     4 1   
     8     3     5 1   
     9     3     7 1   
    10     4    18 2   
    11     4    38 1   
    12     5    19 2   
    13     5    68 1   
    14     6    39 1   
    15     6    40 1   
    16     6    41 1   
    17     7     8 1   
    18     7    42 1   
    19     7    43 1   
    20     8    44 1   
    21     8    45 1   
    22     8    46 1   
    23     9    10 ar  
    24     9    12 ar  
    25     9    68 1   
    26    10    15 ar  
    27    10    47 1   
    28    11    13 1   
    29    11    20 2   
    30    12    13 ar  
    31    12    48 1   
    32    13    14 ar  
    33    14    15 ar  
    34    14    49 1   
    35    15    17 1   
    36    16    50 1   
    37    16    51 1   
    38    16    52 1   
    39    17    21 2   
    40    17    22 1   
    41    22    23 1   
    42    22    27 1   
    43    23    24 1   
    44    23    54 1   
    45    23    55 1   
    46    24    25 1   
    47    24    56 1   
    48    24    57 1   
    49    25    26 1   
    50    25    28 1   
    51    26    27 1   
    52    26    58 1   
    53    26    59 1   
    54    27    60 1   
    55    27    61 1   
    56    28    29 1   
    57    28    62 1   
    58    28    63 1   
    59    29    30 ar  
    60    29    34 ar  
    61    30    31 ar  
    62    30    64 1   
    63    31    32 ar  
    64    31    65 1   
    65    32    33 ar  
    66    32    35 1   
    67    33    34 ar  
    68    33    66 1   
    69    34    67 1   
    70    53    68 1   
@<TRIPOS>SUBSTRUCTURE
     1 2YI         1 TEMP              0 ****  ****    0 ROOT
