@<TRIPOS>MOLECULE
2YI
   68    70     1     0     0
SMALL
No Charge or Current Charge


@<TRIPOS>ATOM
      1 O18        -42.8180    26.1620    25.4010 os         1 2YI      -0.433100
      2 C1         -36.5660    29.0890    22.5010 c3         1 2YI      -0.057400
      3 C2         -37.9130    29.9040    22.4430 c3         1 2YI      -0.256000
      4 C3         -38.4520    29.9220    21.0040 c          1 2YI       0.580900
      5 C5         -39.0250    29.2580    23.3230 c          1 2YI       0.631100
      6 C6         -36.5190    27.7610    21.7030 c3         1 2YI      -0.095600
      7 C7         -37.6160    31.3980    22.8410 c3         1 2YI      -0.057400
      8 C8         -37.0640    31.6130    24.2710 c3         1 2YI      -0.095600
      9 C11        -41.0800    29.9430    24.7150 ca         1 2YI      -0.035000
     10 C12        -41.6330    31.0800    25.3290 ca         1 2YI      -0.120000
     11 C17        -43.4260    27.2030    26.0580 c          1 2YI       0.604700
     12 C16        -41.6690    28.6810    24.9390 ca         1 2YI      -0.068000
     13 C15        -42.7880    28.5490    25.7940 ca         1 2YI      -0.122600
     14 C14        -43.3190    29.7040    26.4090 ca         1 2YI      -0.046000
     15 C13        -42.7660    30.9780    26.1660 ca         1 2YI      -0.130600
     16 C20        -43.3490    24.8360    25.5870 c3         1 2YI       0.153900
     17 C21        -43.3610    32.1880    26.8610 c          1 2YI       0.614700
     18 O9         -39.5870    29.5850    20.6870 o          1 2YI      -0.501100
     19 O10        -39.0340    28.0590    23.5760 o          1 2YI      -0.568100
     20 O19        -44.3960    27.0600    26.7920 o          1 2YI      -0.486000
     21 O22        -43.8670    32.0770    27.9710 o          1 2YI      -0.585100
     22 N23        -43.2310    33.4560    26.2500 n          1 2YI      -0.402800
     23 C24        -43.3820    33.6390    24.7760 c6         1 2YI       0.093000
     24 C25        -44.7510    34.2750    24.4020 c6         1 2YI       0.136800
     25 N26        -45.0040    35.5450    25.1410 n3         1 2YI      -0.717600
     26 C27        -44.8970    35.3210    26.6130 c6         1 2YI       0.136800
     27 C28        -43.5230    34.7110    27.0000 c6         1 2YI       0.093000
     28 C29        -46.2790    36.1870    24.7390 c3         1 2YI       0.212100
     29 C30        -46.4770    37.5720    25.3500 ca         1 2YI      -0.075300
     30 C31        -47.4980    37.7980    26.2960 ca         1 2YI      -0.098500
     31 C32        -47.6740    39.0750    26.8580 ca         1 2YI      -0.087500
     32 C33        -46.8300    40.1310    26.4770 ca         1 2YI      -0.016900
     33 C34        -45.8100    39.9140    25.5350 ca         1 2YI      -0.087500
     34 C35        -45.6350    38.6370    24.9740 ca         1 2YI      -0.098500
     35 Br1        -47.0690    41.8670    27.2420 br         1 2YI      -0.101100
     36 H1         -36.3180    28.8740    23.5480 hc         1 2YI       0.048200
     37 H2         -35.7490    29.7160    22.1220 hc         1 2YI       0.048200
     38 H3         -37.7310    30.2740    20.2340 h4         1 2YI      -0.003800
     39 H4         -35.5500    27.2700    21.8560 hc         1 2YI       0.044033
     40 H5         -37.2980    27.0600    22.0210 hc         1 2YI       0.044033
     41 H6         -36.6300    27.9380    20.6270 hc         1 2YI       0.044033
     42 H7         -36.8860    31.8170    22.1360 hc         1 2YI       0.048200
     43 H8         -38.5160    32.0130    22.7130 hc         1 2YI       0.048200
     44 H9         -36.9400    32.6840    24.4690 hc         1 2YI       0.044033
     45 H10        -37.7380    31.2070    25.0340 hc         1 2YI       0.044033
     46 H11        -36.0830    31.1390    24.3920 hc         1 2YI       0.044033
     47 H12        -41.1620    32.0470    25.1700 ha         1 2YI       0.119000
     48 H13        -41.2690    27.7970    24.4510 ha         1 2YI       0.167000
     49 H14        -44.1790    29.6140    27.0700 ha         1 2YI       0.151000
     50 H15        -42.7690    24.1080    25.0060 h1         1 2YI       0.049700
     51 H16        -43.3060    24.5410    26.6430 h1         1 2YI       0.049700
     52 H17        -44.3940    24.7830    25.2530 h1         1 2YI       0.049700
     53 H18        -39.7860    31.1090    23.6350 hn         1 2YI       0.153000
     54 H19        -43.3000    32.6820    24.2440 h1         1 2YI       0.065700
     55 H20        -42.5720    34.2870    24.4120 h1         1 2YI       0.065700
     56 H21        -44.7680    34.4550    23.3170 h1         1 2YI       0.045700
     57 H22        -45.5460    33.5470    24.6200 h1         1 2YI       0.045700
     58 H24        -45.0190    36.2670    27.1610 h1         1 2YI       0.045700
     59 H25        -45.6930    34.6440    26.9560 h1         1 2YI       0.045700
     60 H26        -43.4930    34.5340    28.0840 h1         1 2YI       0.065700
     61 H27        -42.7350    35.4440    26.7760 h1         1 2YI       0.065700
     62 H28        -46.3090    36.2960    23.6470 h1         1 2YI       0.042700
     63 H29        -47.1260    35.5450    25.0160 h1         1 2YI       0.042700
     64 H30        -48.1540    36.9840    26.5980 ha         1 2YI       0.122500
     65 H31        -48.4630    39.2430    27.5880 ha         1 2YI       0.129500
     66 H32        -45.1560    40.7320    25.2420 ha         1 2YI       0.129500
     67 H33        -44.8410    38.4700    24.2490 ha         1 2YI       0.122500
     68 N4         -39.9470    30.1410    23.8770 ns         1 2YI      -0.139000
@<TRIPOS>BOND
     1     1    11 1   
     2     1    16 1   
     3     2     3 1   
     4     2     6 1   
     5     2    36 1   
     6     2    37 1   
     7     3     4 1   
     8     3     5 1   
     9     3     7 1   
    10     4    18 2   
    11     4    38 1   
    12     5    19 2   
    13     5    68 1   
    14     6    39 1   
    15     6    40 1   
    16     6    41 1   
    17     7     8 1   
    18     7    42 1   
    19     7    43 1   
    20     8    44 1   
    21     8    45 1   
    22     8    46 1   
    23     9    10 ar  
    24     9    12 ar  
    25     9    68 1   
    26    10    15 ar  
    27    10    47 1   
    28    11    13 1   
    29    11    20 2   
    30    12    13 ar  
    31    12    48 1   
    32    13    14 ar  
    33    14    15 ar  
    34    14    49 1   
    35    15    17 1   
    36    16    50 1   
    37    16    51 1   
    38    16    52 1   
    39    17    21 2   
    40    17    22 1   
    41    22    23 1   
    42    22    27 1   
    43    23    24 1   
    44    23    54 1   
    45    23    55 1   
    46    24    25 1   
    47    24    56 1   
    48    24    57 1   
    49    25    26 1   
    50    25    28 1   
    51    26    27 1   
    52    26    58 1   
    53    26    59 1   
    54    27    60 1   
    55    27    61 1   
    56    28    29 1   
    57    28    62 1   
    58    28    63 1   
    59    29    30 ar  
    60    29    34 ar  
    61    30    31 ar  
    62    30    64 1   
    63    31    32 ar  
    64    31    65 1   
    65    32    33 ar  
    66    32    35 1   
    67    33    34 ar  
    68    33    66 1   
    69    34    67 1   
    70    53    68 1   
@<TRIPOS>SUBSTRUCTURE
     1 2YI         1 TEMP              0 ****  ****    0 ROOT
