@<TRIPOS>MOLECULE
2YJ
   41    40     1     0     0
SMALL
bcc


@<TRIPOS>ATOM
      1 O2           5.9210    -1.2750     1.0610 o          1 2YJ      -0.837300
      2 C10          5.2980    -1.3410    -0.0180 c          1 2YJ       0.934600
      3 O1           5.7930    -1.3470    -1.1630 o          1 2YJ      -0.837300
      4 C            3.7560    -1.3580     0.0590 c3         1 2YJ       0.024500
      5 N            3.3130    -1.8930     1.3350 n8         1 2YJ      -0.880800
      6 C1           3.2430     0.0580    -0.2640 c3         1 2YJ      -0.100400
      7 C2           1.7260     0.1570    -0.3490 c3         1 2YJ      -0.102400
      8 C3           1.2630     1.5650    -0.7090 c3         1 2YJ       0.097000
      9 N1          -0.1760     1.6800    -0.8120 ns         1 2YJ      -0.566900
     10 C4          -0.9820     1.8460     0.2480 c          1 2YJ       0.670100
     11 O           -0.5660     2.0500     1.3810 o          1 2YJ      -0.599100
     12 C5          -2.4710     1.7100    -0.0400 c3         1 2YJ       0.080500
     13 N3          -3.1960     2.6550     0.7870 n8         1 2YJ      -0.873800
     14 C6          -2.8570     0.2320     0.1420 c3         1 2YJ      -0.117400
     15 C7          -4.3170    -0.0540    -0.1890 c3         1 2YJ      -0.075400
     16 C8          -4.6490    -1.5400    -0.1370 c3         1 2YJ      -0.079400
     17 C9          -6.1070    -1.8260    -0.4600 c3         1 2YJ       0.149800
     18 N2          -6.3820    -3.2560    -0.4200 n8         1 2YJ      -0.883800
     19 H2           3.3860    -2.0210    -0.7320 h1         1 2YJ       0.039700
     20 H3           3.7940    -1.4000     2.0760 hn         1 2YJ       0.322800
     21 H4           2.3220    -1.7310     1.4660 hn         1 2YJ       0.322800
     22 H6           3.6140     0.7560     0.4970 hc         1 2YJ       0.045200
     23 H7           3.6780     0.3750    -1.2170 hc         1 2YJ       0.045200
     24 H8           1.3530    -0.5480    -1.0980 hc         1 2YJ       0.034700
     25 H9           1.2690    -0.1230     0.6040 hc         1 2YJ       0.034700
     26 H10          1.6210     2.2790     0.0340 h1         1 2YJ       0.054200
     27 H11          1.6870     1.8660    -1.6680 h1         1 2YJ       0.054200
     28 H12         -0.5960     1.4670    -1.7020 hn         1 2YJ       0.300500
     29 H13         -2.6570     1.9790    -1.0860 h1         1 2YJ       0.056700
     30 H14         -4.1880     2.5750     0.6020 hn         1 2YJ       0.345800
     31 H15         -3.0680     2.4210     1.7640 hn         1 2YJ       0.345800
     32 H17         -2.2200    -0.3840    -0.5010 hc         1 2YJ       0.058700
     33 H18         -2.6450    -0.0720     1.1730 hc         1 2YJ       0.058700
     34 H19         -4.9680     0.4810     0.5090 hc         1 2YJ       0.031700
     35 H20         -4.5450     0.3370    -1.1870 hc         1 2YJ       0.031700
     36 H21         -4.0100    -2.0760    -0.8480 hc         1 2YJ       0.051700
     37 H22         -4.4140    -1.9410     0.8540 hc         1 2YJ       0.051700
     38 H23         -6.7420    -1.3380     0.2850 h1         1 2YJ       0.023200
     39 H24         -6.3540    -1.3600    -1.4260 h1         1 2YJ       0.023200
     40 H25         -7.3640    -3.4160    -0.6060 hn         1 2YJ       0.334300
     41 H26         -5.8870    -3.7110    -1.1780 hn         1 2YJ       0.334300
@<TRIPOS>BOND
     1     1     2 1   
     2     2     3 1   
     3     2     4 1   
     4     4     5 1   
     5     4     6 1   
     6     4    19 1   
     7     5    20 1   
     8     5    21 1   
     9     6     7 1   
    10     6    22 1   
    11     6    23 1   
    12     7     8 1   
    13     7    24 1   
    14     7    25 1   
    15     8     9 1   
    16     8    26 1   
    17     8    27 1   
    18     9    10 1   
    19     9    28 1   
    20    10    11 2   
    21    10    12 1   
    22    12    13 1   
    23    12    14 1   
    24    12    29 1   
    25    13    30 1   
    26    13    31 1   
    27    14    15 1   
    28    14    32 1   
    29    14    33 1   
    30    15    16 1   
    31    15    34 1   
    32    15    35 1   
    33    16    17 1   
    34    16    36 1   
    35    16    37 1   
    36    17    18 1   
    37    17    38 1   
    38    17    39 1   
    39    18    40 1   
    40    18    41 1   
@<TRIPOS>SUBSTRUCTURE
     1 2YJ         1 TEMP              0 ****  ****    0 ROOT
