@<TRIPOS>MOLECULE
2YJ
   41    40     1     0     0
SMALL
No Charge or Current Charge


@<TRIPOS>ATOM
      1 O2           6.4290    -0.6200     0.5190 o          1 2YJ      -0.732000
      2 C10          5.7280    -1.1690    -0.3240 c          1 2YJ       0.724000
      3 O1           6.1880    -1.7330    -1.3090 o          1 2YJ      -0.732000
      4 C            4.1580    -1.2280    -0.0850 c3         1 2YJ       0.024500
      5 N            3.6960    -1.9090     1.1780 n8         1 2YJ      -0.991200
      6 C1           3.5290     0.1880    -0.1880 c3         1 2YJ      -0.100400
      7 C2           1.9840     0.2020    -0.3030 c3         1 2YJ      -0.102400
      8 C3           1.4120     1.6240    -0.4790 c3         1 2YJ       0.097000
      9 N1          -0.0460     1.6180    -0.6230 ns         1 2YJ      -0.499900
     10 C4          -0.9420     1.4990     0.4220 c          1 2YJ       0.603100
     11 O           -0.5730     1.4330     1.5900 o          1 2YJ      -0.599100
     12 C5          -2.4610     1.4810     0.0030 c3         1 2YJ       0.080500
     13 N3          -3.2890     2.6050     0.5530 n8         1 2YJ      -0.984200
     14 C6          -3.1120     0.1160     0.3480 c3         1 2YJ      -0.117400
     15 C7          -4.5020    -0.1160    -0.2950 c3         1 2YJ      -0.075400
     16 C8          -5.0820    -1.5160     0.0110 c3         1 2YJ      -0.079400
     17 C9          -6.4660    -1.7440    -0.6310 c3         1 2YJ       0.149800
     18 N2          -6.9930    -3.0850    -0.3190 n8         1 2YJ      -0.994200
     19 H2           3.7500    -1.8150    -0.9200 h1         1 2YJ       0.039700
     20 H3           4.1250    -1.4320     1.9810 hn         1 2YJ       0.378000
     21 H4           2.6920    -1.7390     1.2980 hn         1 2YJ       0.378000
     22 H6           3.8380     0.7910     0.6760 hc         1 2YJ       0.045200
     23 H7           3.9450     0.6830    -1.0750 hc         1 2YJ       0.045200
     24 H8           1.6820    -0.4130    -1.1600 hc         1 2YJ       0.034700
     25 H9           1.5410    -0.2520     0.5910 hc         1 2YJ       0.034700
     26 H10          1.6870     2.2440     0.3850 h1         1 2YJ       0.054200
     27 H11          1.8470     2.0850    -1.3770 h1         1 2YJ       0.054200
     28 H12         -0.4380     1.6860    -1.5550 hn         1 2YJ       0.300500
     29 H13         -2.4790     1.5780    -1.0920 h1         1 2YJ       0.056700
     30 H14         -4.2760     2.4350     0.3270 hn         1 2YJ       0.401000
     31 H15         -3.2650     2.5650     1.5790 hn         1 2YJ       0.401000
     32 H17         -2.4380    -0.6810     0.0070 hc         1 2YJ       0.058700
     33 H18         -3.1870     0.0100     1.4380 hc         1 2YJ       0.058700
     34 H19         -5.2080     0.6430     0.0630 hc         1 2YJ       0.031700
     35 H20         -4.4220     0.0070    -1.3820 hc         1 2YJ       0.031700
     36 H21         -4.3840    -2.2810    -0.3500 hc         1 2YJ       0.051700
     37 H22         -5.1640    -1.6410     1.0980 hc         1 2YJ       0.051700
     38 H23         -7.1760    -0.9930    -0.2580 h1         1 2YJ       0.023200
     39 H24         -6.3900    -1.6410    -1.7220 h1         1 2YJ       0.023200
     40 H25         -7.8840    -3.2170    -0.8140 hn         1 2YJ       0.389500
     41 H26         -6.3780    -3.7910    -0.7400 hn         1 2YJ       0.389500
@<TRIPOS>BOND
     1     1     2 1   
     2     2     3 1   
     3     2     4 1   
     4     4     5 1   
     5     4     6 1   
     6     4    19 1   
     7     5    20 1   
     8     5    21 1   
     9     6     7 1   
    10     6    22 1   
    11     6    23 1   
    12     7     8 1   
    13     7    24 1   
    14     7    25 1   
    15     8     9 1   
    16     8    26 1   
    17     8    27 1   
    18     9    10 1   
    19     9    28 1   
    20    10    11 2   
    21    10    12 1   
    22    12    13 1   
    23    12    14 1   
    24    12    29 1   
    25    13    30 1   
    26    13    31 1   
    27    14    15 1   
    28    14    32 1   
    29    14    33 1   
    30    15    16 1   
    31    15    34 1   
    32    15    35 1   
    33    16    17 1   
    34    16    36 1   
    35    16    37 1   
    36    17    18 1   
    37    17    38 1   
    38    17    39 1   
    39    18    40 1   
    40    18    41 1   
@<TRIPOS>SUBSTRUCTURE
     1 2YJ         1 TEMP              0 ****  ****    0 ROOT
