@<TRIPOS>MOLECULE
2YK
   42    45     1     0     0
SMALL
No Charge or Current Charge


@<TRIPOS>ATOM
      1 N3          -3.1100    -2.0250    -0.3470 nc         1 2YK      -0.388700
      2 C4          -3.3750     1.5610    -1.3290 cc         1 2YK       0.284900
      3 N2          -4.1730     2.1790    -2.1810 nd         1 2YK      -0.532800
      4 C7          -0.2900     0.6750     1.6560 cc         1 2YK       0.413300
      5 C6          -1.4720    -1.6280     1.0550 cd         1 2YK      -0.157000
      6 C9          -0.4360    -1.7230     2.0290 cd         1 2YK      -0.020000
      7 C13          4.6940     0.7540     1.0800 ca         1 2YK      -0.133000
      8 C8           0.1580    -0.5210     2.3290 cc         1 2YK      -0.143000
      9 N5          -1.8400    -0.4480     0.4810 na         1 2YK       0.128000
     10 C16          1.6950     0.9550    -2.0100 c3         1 2YK       0.145900
     11 C17          6.6200     0.6650     3.2600 c3         1 2YK       0.147900
     12 C12          4.3580     1.1490     2.3930 ca         1 2YK       0.097100
     13 C11          3.0570     1.5990     2.6670 ca         1 2YK      -0.064000
     14 C14          3.7310     0.8200     0.0570 ca         1 2YK      -0.168000
     15 C15          2.4220     1.2740     0.3330 ca         1 2YK       0.141100
     16 O1           1.4610     1.3740    -0.6540 os         1 2YK      -0.328100
     17 C10          2.0830     1.6530     1.6510 ca         1 2YK      -0.168000
     18 S            0.4310     2.2290     2.0830 ss         1 2YK      -0.066300
     19 N4          -2.2230    -2.6020     0.5720 nc         1 2YK      -0.068000
     20 N6          -1.2890     0.7940     0.7730 nd         1 2YK      -0.439800
     21 C5          -2.8720    -0.7120    -0.3940 cd         1 2YK       0.469400
     22 C3          -3.5900     0.2180    -1.2360 cd         1 2YK      -0.244900
     23 C2          -4.6060    -0.1480    -2.0770 cc         1 2YK      -0.116000
     24 N1          -4.9080     1.0960    -2.6130 na         1 2YK       0.134800
     25 C1          -5.9590     1.3340    -3.6130 c3         1 2YK       0.072900
     26 H1          -2.6540     2.1780    -0.8120 h4         1 2YK       0.056100
     27 H2          -0.1430    -2.6590     2.4960 ha         1 2YK       0.149000
     28 H3           5.6920     0.4010     0.8350 ha         1 2YK       0.121000
     29 H4           0.9550    -0.4560     3.0600 ha         1 2YK       0.143000
     30 H5           1.9540    -0.1110    -2.0490 h1         1 2YK       0.045700
     31 H6           0.7930     1.1070    -2.6150 h1         1 2YK       0.045700
     32 H7           2.5100     1.5340    -2.4630 h1         1 2YK       0.045700
     33 H8           6.6470    -0.3740     2.9090 h1         1 2YK       0.041700
     34 H9           7.1480     1.2970     2.5350 h1         1 2YK       0.041700
     35 H10          7.1630     0.7160     4.2130 h1         1 2YK       0.041700
     36 H11          2.8020     1.9010     3.6800 ha         1 2YK       0.144000
     37 H12          4.0230     0.5190    -0.9450 ha         1 2YK       0.122000
     38 H13         -5.0970    -1.0840    -2.3220 h4         1 2YK       0.170000
     39 H14         -6.6960     2.0380    -3.2100 h1         1 2YK       0.058033
     40 H15         -5.5120     1.7540    -4.5220 h1         1 2YK       0.058033
     41 H16         -6.4590     0.3900    -3.8600 h1         1 2YK       0.058033
     42 O2           5.2630     1.1120     3.4360 os         1 2YK      -0.338100
@<TRIPOS>BOND
     1     1    19 1   
     2     1    21 2   
     3     2     3 2   
     4     2    22 1   
     5     2    26 1   
     6     3    24 1   
     7     4     8 1   
     8     4    18 1   
     9     4    20 2   
    10     5     6 1   
    11     5     9 1   
    12     5    19 2   
    13     6     8 2   
    14     6    27 1   
    15     7    12 ar  
    16     7    14 ar  
    17     7    28 1   
    18     8    29 1   
    19     9    20 1   
    20     9    21 1   
    21    10    16 1   
    22    10    30 1   
    23    10    31 1   
    24    10    32 1   
    25    11    33 1   
    26    11    34 1   
    27    11    35 1   
    28    11    42 1   
    29    12    13 ar  
    30    12    42 1   
    31    13    17 ar  
    32    13    36 1   
    33    14    15 ar  
    34    14    37 1   
    35    15    16 1   
    36    15    17 ar  
    37    17    18 1   
    38    21    22 1   
    39    22    23 2   
    40    23    24 1   
    41    23    38 1   
    42    24    25 1   
    43    25    39 1   
    44    25    40 1   
    45    25    41 1   
@<TRIPOS>SUBSTRUCTURE
     1 2YK         1 TEMP              0 ****  ****    0 ROOT
