@<TRIPOS>MOLECULE
2YK
   42    45     1     0     0
SMALL
abcg2


@<TRIPOS>ATOM
      1 N3          -3.4780    -1.9700    -0.6010 nc         1 2YK      -0.388700
      2 C4          -3.7330     1.7620    -1.2170 cc         1 2YK       0.284900
      3 N2          -4.7200     2.3770    -1.8350 nd         1 2YK      -0.532800
      4 C7          -0.1650     0.4340     0.8540 cc         1 2YK       0.413300
      5 C6          -1.5920    -1.8140     0.3910 cd         1 2YK      -0.157000
      6 C9          -0.3640    -1.9510     1.0770 cd         1 2YK      -0.020000
      7 C13          5.0340     0.8320     1.4890 ca         1 2YK      -0.133000
      8 C8           0.3460    -0.8240     1.3140 cc         1 2YK      -0.143000
      9 N5          -1.9710    -0.5490     0.0200 na         1 2YK       0.128000
     10 C16          2.8340     0.0570    -2.0160 c3         1 2YK       0.145900
     11 C17          6.3540     1.3730     3.9140 c3         1 2YK       0.147900
     12 C12          4.3940     1.4000     2.5820 ca         1 2YK       0.097100
     13 C11          3.0340     1.6980     2.4840 ca         1 2YK      -0.064000
     14 C14          4.3360     0.5720     0.3130 ca         1 2YK      -0.168000
     15 C15          2.9890     0.8840     0.1990 ca         1 2YK       0.141100
     16 O1           2.2360     0.6730    -0.8910 os         1 2YK      -0.328100
     17 C10          2.3430     1.4460     1.3110 ca         1 2YK      -0.168000
     18 S            0.6570     1.9530     1.1950 ss         1 2YK      -0.066300
     19 N4          -2.5100    -2.6700     0.0120 nc         1 2YK      -0.068000
     20 N6          -1.2840     0.5780     0.2200 nd         1 2YK      -0.439800
     21 C5          -3.1680    -0.6920    -0.6040 cd         1 2YK       0.469400
     22 C3          -3.9560     0.3700    -1.1710 cd         1 2YK      -0.244900
     23 C2          -5.1680     0.2040    -1.8190 cc         1 2YK      -0.116000
     24 N1          -5.5750     1.4210    -2.1910 na         1 2YK       0.134800
     25 C1          -6.7840     1.7600    -2.9030 c3         1 2YK       0.072900
     26 H1          -2.8990     2.3210    -0.8240 h4         1 2YK       0.056100
     27 H2          -0.0300    -2.9260     1.4010 ha         1 2YK       0.149000
     28 H3           6.0850     0.5750     1.5220 ha         1 2YK       0.121000
     29 H4           1.2840    -0.8590     1.8490 ha         1 2YK       0.143000
     30 H5           3.2190    -0.9380    -1.7770 h1         1 2YK       0.045700
     31 H6           2.0520    -0.0390    -2.7650 h1         1 2YK       0.045700
     32 H7           3.6460     0.6620    -2.4270 h1         1 2YK       0.045700
     33 H8           6.5410     0.3010     3.8040 h1         1 2YK       0.041700
     34 H9           6.9810     1.9140     3.2000 h1         1 2YK       0.041700
     35 H10          6.6300     1.6740     4.9210 h1         1 2YK       0.041700
     36 H11          2.5170     2.1260     3.3330 ha         1 2YK       0.144000
     37 H12          4.8750     0.1270    -0.5120 ha         1 2YK       0.122000
     38 H13         -5.7410    -0.6850    -2.0260 h4         1 2YK       0.170000
     39 H14         -7.4000     2.4260    -2.3030 h1         1 2YK       0.058033
     40 H15         -6.5410     2.2460    -3.8450 h1         1 2YK       0.058033
     41 H16         -7.3400     0.8500    -3.1060 h1         1 2YK       0.058033
     42 O2           4.9840     1.6870     3.7600 os         1 2YK      -0.338100
@<TRIPOS>BOND
     1     1    19 1   
     2     1    21 2   
     3     2     3 2   
     4     2    22 1   
     5     2    26 1   
     6     3    24 1   
     7     4     8 1   
     8     4    18 1   
     9     4    20 2   
    10     5     6 1   
    11     5     9 1   
    12     5    19 2   
    13     6     8 2   
    14     6    27 1   
    15     7    12 ar  
    16     7    14 ar  
    17     7    28 1   
    18     8    29 1   
    19     9    20 1   
    20     9    21 1   
    21    10    16 1   
    22    10    30 1   
    23    10    31 1   
    24    10    32 1   
    25    11    33 1   
    26    11    34 1   
    27    11    35 1   
    28    11    42 1   
    29    12    13 ar  
    30    12    42 1   
    31    13    17 ar  
    32    13    36 1   
    33    14    15 ar  
    34    14    37 1   
    35    15    16 1   
    36    15    17 ar  
    37    17    18 1   
    38    21    22 1   
    39    22    23 2   
    40    23    24 1   
    41    23    38 1   
    42    24    25 1   
    43    25    39 1   
    44    25    40 1   
    45    25    41 1   
@<TRIPOS>SUBSTRUCTURE
     1 2YK         1 TEMP              0 ****  ****    0 ROOT
