@<TRIPOS>MOLECULE
2YL
   22    23     1     0     0
SMALL
bcc


@<TRIPOS>ATOM
      1 N1          -2.7870     0.0320    -0.0000 ns         1 2YL      -0.535400
      2 C2          -2.1210     1.2560     0.0080 c          1 2YL       0.848900
      3 N3          -0.7680     1.1980     0.0090 nc         1 2YL      -0.733100
      4 C4          -0.1920     0.0180     0.0010 cd         1 2YL       0.796900
      5 N5          -0.8030    -1.1710    -0.0080 nd         1 2YL      -0.853000
      6 C6          -2.1220    -1.1420    -0.0080 cc         1 2YL       0.758800
      7 N7          -2.8120    -2.2710    -0.0180 nv         1 2YL      -0.939800
      8 O8          -2.7640     2.2890     0.0130 o          1 2YL      -0.600500
      9 C9           4.0770    -0.0630     0.0040 ca         1 2YL      -0.102000
     10 C10          3.4020     1.1520     0.0080 ca         1 2YL      -0.150500
     11 C11          2.0160     1.1770     0.0060 ca         1 2YL      -0.072500
     12 C12          1.2880    -0.0130     0.0010 ca         1 2YL      -0.147900
     13 C13          1.9730    -1.2290    -0.0030 ca         1 2YL      -0.072500
     14 C14          3.3590    -1.2520    -0.0010 ca         1 2YL      -0.150500
     15 H2          -2.3200    -3.1480    -0.0200 hn         1 2YL       0.458800
     16 H3          -3.8180    -2.2900    -0.0090 hn         1 2YL       0.458800
     17 H5           3.9570     2.0800     0.0120 ha         1 2YL       0.133500
     18 H6           1.4910     2.1230     0.0100 ha         1 2YL       0.155500
     19 H7           1.4160    -2.1550    -0.0070 ha         1 2YL       0.155500
     20 H8           3.8800    -2.2010    -0.0040 ha         1 2YL       0.133500
     21 H9          -3.7990     0.0460    -0.0010 hn         1 2YL       0.329500
     22 H4           5.1590    -0.0830     0.0050 ha         1 2YL       0.130000
@<TRIPOS>BOND
     1     1     2 1   
     2     1     6 1   
     3     1    21 1   
     4     2     3 1   
     5     2     8 2   
     6     3     4 2   
     7     4     5 1   
     8     4    12 1   
     9     5     6 2   
    10     6     7 1   
    11     7    15 1   
    12     7    16 1   
    13     9    10 ar  
    14     9    14 ar  
    15     9    22 1   
    16    10    11 ar  
    17    10    17 1   
    18    11    12 ar  
    19    11    18 1   
    20    12    13 ar  
    21    13    14 ar  
    22    13    19 1   
    23    14    20 1   
@<TRIPOS>SUBSTRUCTURE
     1 2YL         1 TEMP              0 ****  ****    0 ROOT
