@<TRIPOS>MOLECULE
2YL
   22    23     1     0     0
SMALL
No Charge or Current Charge


@<TRIPOS>ATOM
      1 N1          -2.8240     0.0360    -0.0620 ns         1 2YL      -0.581900
      2 C2          -2.1980     1.2010    -0.0240 c          1 2YL       0.706400
      3 N3          -0.8520     1.1200    -0.0050 nc         1 2YL      -0.733100
      4 C4          -0.2060    -0.0350    -0.0320 cd         1 2YL       0.796900
      5 N5          -0.8920    -1.2490    -0.0790 nd         1 2YL      -0.853000
      6 C6          -2.1690    -1.1010    -0.0890 cc         1 2YL       0.758800
      7 N7          -2.8800    -2.1940    -0.1280 nv         1 2YL      -1.050200
      8 O8          -2.8000     2.2560    -0.0100 o          1 2YL      -0.525000
      9 C9           4.1220    -0.0530     0.0270 ca         1 2YL      -0.084000
     10 C10          3.4230     1.1630     0.0580 ca         1 2YL      -0.132500
     11 C11          2.0170     1.1730     0.0390 ca         1 2YL      -0.054500
     12 C12          1.2820    -0.0390    -0.0120 ca         1 2YL      -0.147900
     13 C13          2.0060    -1.2580    -0.0420 ca         1 2YL      -0.054500
     14 C14          3.4120    -1.2620    -0.0230 ca         1 2YL      -0.132500
     15 H2          -2.3010    -3.0140    -0.0050 hn         1 2YL       0.514000
     16 H3          -3.7240    -2.1990     0.4300 hn         1 2YL       0.514000
     17 H5           3.9700     2.1020     0.0960 ha         1 2YL       0.115500
     18 H6           1.5050     2.1330     0.0630 ha         1 2YL       0.137500
     19 H7           1.4850    -2.2120    -0.0810 ha         1 2YL       0.137500
     20 H8           3.9510    -2.2060    -0.0470 ha         1 2YL       0.115500
     21 H9          -3.8260     0.0510    -0.1170 hn         1 2YL       0.443000
     22 H4           5.2100    -0.0580     0.0420 ha         1 2YL       0.112000
@<TRIPOS>BOND
     1     1     2 1   
     2     1     6 1   
     3     1    21 1   
     4     2     3 1   
     5     2     8 2   
     6     3     4 2   
     7     4     5 1   
     8     4    12 1   
     9     5     6 2   
    10     6     7 1   
    11     7    15 1   
    12     7    16 1   
    13     9    10 ar  
    14     9    14 ar  
    15     9    22 1   
    16    10    11 ar  
    17    10    17 1   
    18    11    12 ar  
    19    11    18 1   
    20    12    13 ar  
    21    13    14 ar  
    22    13    19 1   
    23    14    20 1   
@<TRIPOS>SUBSTRUCTURE
     1 2YL         1 TEMP              0 ****  ****    0 ROOT
