@<TRIPOS>MOLECULE
2YM
   45    48     1     0     0
SMALL
No Charge or Current Charge


@<TRIPOS>ATOM
      1 O            5.8240    -2.1290    -0.0420 o          1 2YM      -0.560100
      2 C1           5.4690    -0.9640     0.0370 c          1 2YM       0.738100
      3 N1           6.3840     0.0340     0.1070 nc         1 2YM      -0.793100
      4 C2           4.0530    -0.5720     0.0560 ca         1 2YM      -0.234600
      5 C15          3.7770     0.7960     0.1540 ca         1 2YM       0.325000
      6 N6           4.7850     1.7390     0.2350 na         1 2YM      -0.933200
      7 C            6.0400     1.2670     0.1970 cd         1 2YM       0.901100
      8 N            6.9690     2.1650     0.2480 nv         1 2YM      -1.055200
      9 C14          2.4410     1.2420     0.1780 ca         1 2YM      -0.189000
     10 C13          1.4310     0.2790     0.0990 ca         1 2YM      -0.030200
     11 C4           1.6860    -1.0610     0.0020 ca         1 2YM       0.069400
     12 C3           3.0090    -1.5270    -0.0230 ca         1 2YM       0.028000
     13 N5           0.0790     0.4180     0.0990 na         1 2YM      -0.354600
     14 C5          -0.4360    -0.8560     0.0010 cc         1 2YM       0.652700
     15 N2           0.5030    -1.7990    -0.0620 nd         1 2YM      -0.632100
     16 N3          -1.7520    -1.1530    -0.0320 nu         1 2YM      -0.890400
     17 C6          -2.8790    -0.2060     0.0680 c3         1 2YM       0.215800
     18 C7          -4.2590    -0.9250     0.0280 c3         1 2YM       0.158800
     19 N4          -5.4500    -0.0510     0.2290 n3         1 2YM      -0.722600
     20 C12         -6.6970    -0.8500     0.3960 c6         1 2YM       0.167300
     21 C11         -7.9130     0.0450     0.7350 c6         1 2YM      -0.075400
     22 C10         -8.1130     1.1380    -0.3390 c6         1 2YM      -0.076400
     23 C9          -6.8020     1.9320    -0.5350 c6         1 2YM      -0.075400
     24 C8          -5.6140     0.9850    -0.8350 c6         1 2YM       0.167300
     25 H1           4.6110     2.7210     0.3750 hn         1 2YM       0.496000
     26 H2           6.7520     3.0120    -0.2530 hn         1 2YM       0.501000
     27 H3           7.8780     1.7790     0.0400 hn         1 2YM       0.501000
     28 H4           2.2010     2.2990     0.2540 ha         1 2YM       0.117000
     29 H5           3.2140    -2.5920    -0.1000 ha         1 2YM       0.156000
     30 H6          -0.4560     1.2690     0.1570 hn         1 2YM       0.357000
     31 H8          -1.9380    -2.1520    -0.0860 hn         1 2YM       0.502000
     32 H9          -2.8040     0.3570     1.0080 h1         1 2YM       0.044200
     33 H10         -2.8190     0.5130    -0.7590 h1         1 2YM       0.044200
     34 H11         -4.3450    -1.4530    -0.9320 h1         1 2YM       0.041700
     35 H12         -4.2460    -1.6930     0.8130 h1         1 2YM       0.041700
     36 H14         -6.9130    -1.4140    -0.5240 h1         1 2YM       0.031200
     37 H15         -6.5710    -1.5870     1.2040 h1         1 2YM       0.031200
     38 H16         -8.8180    -0.5710     0.8170 hc         1 2YM       0.047700
     39 H17         -7.7610     0.5130     1.7180 hc         1 2YM       0.047700
     40 H18         -8.4120     0.6740    -1.2900 hc         1 2YM       0.041700
     41 H19         -8.9270     1.8150    -0.0460 hc         1 2YM       0.041700
     42 H20         -6.9190     2.6530    -1.3550 hc         1 2YM       0.047700
     43 H21         -6.5840     2.5170     0.3690 hc         1 2YM       0.047700
     44 H22         -4.7070     1.5990    -0.9240 h1         1 2YM       0.031200
     45 H23         -5.7760     0.5030    -1.8110 h1         1 2YM       0.031200
@<TRIPOS>BOND
     1     1     2 2   
     2     2     3 1   
     3     2     4 1   
     4     3     7 2   
     5     4     5 ar  
     6     4    12 ar  
     7     5     6 1   
     8     5     9 ar  
     9     6     7 1   
    10     6    25 1   
    11     7     8 1   
    12     8    26 1   
    13     8    27 1   
    14     9    10 ar  
    15     9    28 1   
    16    10    11 ar  
    17    10    13 1   
    18    11    12 ar  
    19    11    15 1   
    20    12    29 1   
    21    13    14 1   
    22    13    30 1   
    23    14    15 2   
    24    14    16 1   
    25    16    17 1   
    26    16    31 1   
    27    17    18 1   
    28    17    32 1   
    29    17    33 1   
    30    18    19 1   
    31    18    34 1   
    32    18    35 1   
    33    19    20 1   
    34    19    24 1   
    35    20    21 1   
    36    20    36 1   
    37    20    37 1   
    38    21    22 1   
    39    21    38 1   
    40    21    39 1   
    41    22    23 1   
    42    22    40 1   
    43    22    41 1   
    44    23    24 1   
    45    23    42 1   
    46    23    43 1   
    47    24    44 1   
    48    24    45 1   
@<TRIPOS>SUBSTRUCTURE
     1 2YM         1 TEMP              0 ****  ****    0 ROOT
