@<TRIPOS>MOLECULE
2YM
   45    48     1     0     0
SMALL
abcg2


@<TRIPOS>ATOM
      1 O            5.6580    -1.8920    -1.0130 o          1 2YM      -0.560100
      2 C1           5.3340    -0.8100    -0.5290 c          1 2YM       0.738100
      3 N1           6.2770     0.1220    -0.2250 nc         1 2YM      -0.793100
      4 C2           3.9190    -0.4890    -0.2700 ca         1 2YM      -0.234600
      5 C15          3.6060     0.7610     0.2820 ca         1 2YM       0.325000
      6 N6           4.6520     1.6210     0.5530 na         1 2YM      -0.933200
      7 C            5.9290     1.2740     0.2940 cd         1 2YM       0.901100
      8 N            6.8800     2.1600     0.6190 nv         1 2YM      -1.055200
      9 C14          2.2930     1.1420     0.5540 ca         1 2YM      -0.189000
     10 C13          1.3190     0.2170     0.2500 ca         1 2YM      -0.030200
     11 C4           1.5960    -1.0540    -0.3060 ca         1 2YM       0.069400
     12 C3           2.9050    -1.4040    -0.5660 ca         1 2YM       0.028000
     13 N5          -0.0440     0.2500     0.3750 na         1 2YM      -0.354600
     14 C5          -0.5210    -0.9480    -0.0860 cc         1 2YM       0.652700
     15 N2           0.4260    -1.7510    -0.5030 nd         1 2YM      -0.632100
     16 N3          -1.8350    -1.2460    -0.0660 nu         1 2YM      -0.890400
     17 C6          -2.8670    -0.2360     0.0580 c3         1 2YM       0.215800
     18 C7          -4.2250    -0.9160     0.1670 c3         1 2YM       0.158800
     19 N4          -5.3080     0.0450     0.1950 n3         1 2YM      -0.722600
     20 C12         -6.4900    -0.4990     0.8460 c6         1 2YM       0.167300
     21 C11         -7.5860     0.5480     0.9680 c6         1 2YM      -0.075400
     22 C10         -7.9490     1.1180    -0.3970 c6         1 2YM      -0.076400
     23 C9          -6.6900     1.6230    -1.0910 c6         1 2YM      -0.075400
     24 C8          -5.6300     0.5340    -1.1380 c6         1 2YM       0.167300
     25 H1           4.4480     2.5210     0.9630 hn         1 2YM       0.496000
     26 H2           6.6550     3.1150     0.8430 hn         1 2YM       0.501000
     27 H3           7.8180     1.9740     0.3100 hn         1 2YM       0.501000
     28 H4           2.0600     2.1110     0.9780 ha         1 2YM       0.117000
     29 H5           3.1550    -2.3660    -0.9920 ha         1 2YM       0.156000
     30 H6          -0.5840     1.0150     0.7440 hn         1 2YM       0.357000
     31 H8          -2.0720    -2.0630    -0.6090 hn         1 2YM       0.502000
     32 H9          -2.7070     0.3470     0.9680 h1         1 2YM       0.044200
     33 H10         -2.8400     0.4620    -0.7860 h1         1 2YM       0.044200
     34 H11         -4.3450    -1.6420    -0.6560 h1         1 2YM       0.041700
     35 H12         -4.2400    -1.4940     1.0940 h1         1 2YM       0.041700
     36 H14         -6.8820    -1.3730     0.2950 h1         1 2YM       0.031200
     37 H15         -6.2060    -0.8550     1.8390 h1         1 2YM       0.031200
     38 H16         -8.4590     0.1010     1.4500 hc         1 2YM       0.047700
     39 H17         -7.2380     1.3550     1.6210 hc         1 2YM       0.047700
     40 H18         -8.4120     0.3360    -1.0090 hc         1 2YM       0.041700
     41 H19         -8.6860     1.9180    -0.2990 hc         1 2YM       0.041700
     42 H20         -6.9110     1.9540    -2.1080 hc         1 2YM       0.047700
     43 H21         -6.2950     2.4890    -0.5520 hc         1 2YM       0.047700
     44 H22         -4.7270     0.9260    -1.6090 h1         1 2YM       0.031200
     45 H23         -5.9850    -0.2930    -1.7800 h1         1 2YM       0.031200
@<TRIPOS>BOND
     1     1     2 2   
     2     2     3 1   
     3     2     4 1   
     4     3     7 2   
     5     4     5 ar  
     6     4    12 ar  
     7     5     6 1   
     8     5     9 ar  
     9     6     7 1   
    10     6    25 1   
    11     7     8 1   
    12     8    26 1   
    13     8    27 1   
    14     9    10 ar  
    15     9    28 1   
    16    10    11 ar  
    17    10    13 1   
    18    11    12 ar  
    19    11    15 1   
    20    12    29 1   
    21    13    14 1   
    22    13    30 1   
    23    14    15 2   
    24    14    16 1   
    25    16    17 1   
    26    16    31 1   
    27    17    18 1   
    28    17    32 1   
    29    17    33 1   
    30    18    19 1   
    31    18    34 1   
    32    18    35 1   
    33    19    20 1   
    34    19    24 1   
    35    20    21 1   
    36    20    36 1   
    37    20    37 1   
    38    21    22 1   
    39    21    38 1   
    40    21    39 1   
    41    22    23 1   
    42    22    40 1   
    43    22    41 1   
    44    23    24 1   
    45    23    42 1   
    46    23    43 1   
    47    24    44 1   
    48    24    45 1   
@<TRIPOS>SUBSTRUCTURE
     1 2YM         1 TEMP              0 ****  ****    0 ROOT
