@<TRIPOS>MOLECULE
2YO
   43    46     1     0     0
SMALL
No Charge or Current Charge


@<TRIPOS>ATOM
      1 O            6.1940    -1.8760    -0.0230 o          1 2YO      -0.536100
      2 C1           5.8110    -0.7180     0.0310 c          1 2YO       0.714100
      3 N1           6.7020     0.3060     0.0880 nc         1 2YO      -0.707100
      4 C2           4.3890    -0.3640     0.0400 ca         1 2YO      -0.233600
      5 C15          4.0720     0.9940     0.1050 ca         1 2YO       0.309000
      6 N6           5.0460     1.9790     0.1590 na         1 2YO      -0.905200
      7 C            6.3840     1.5840     0.1490 cd         1 2YO       0.680100
      8 C14          2.7230     1.4000     0.1160 ca         1 2YO      -0.185000
      9 C13          1.7420     0.4050     0.0600 ca         1 2YO      -0.028200
     10 C4           2.0370    -0.9280    -0.0030 ca         1 2YO       0.074400
     11 C3           3.3730    -1.3530    -0.0160 ca         1 2YO       0.025000
     12 N5           0.3870     0.5030     0.0570 na         1 2YO      -0.355600
     13 C5          -0.0900    -0.7880    -0.0100 cc         1 2YO       0.661700
     14 N2           0.8780    -1.7030    -0.0490 nd         1 2YO      -0.636100
     15 N3          -1.3960    -1.1250    -0.0350 nu         1 2YO      -0.898400
     16 C6          -2.5500    -0.2140     0.0770 c3         1 2YO       0.219800
     17 C7          -3.9080    -0.9740     0.0390 c3         1 2YO       0.159800
     18 N4          -5.1240    -0.1380     0.2520 n3         1 2YO      -0.725600
     19 C12         -6.3450    -0.9760     0.4210 c6         1 2YO       0.169300
     20 C11         -7.5870    -0.1210     0.7720 c6         1 2YO      -0.075400
     21 C10         -7.8260     0.9720    -0.2940 c6         1 2YO      -0.075400
     22 C9          -6.5410     1.8070    -0.4920 c6         1 2YO      -0.075400
     23 C8          -5.3260     0.8990    -0.8040 c6         1 2YO       0.169300
     24 H1           4.8150     2.9650     0.2060 hn         1 2YO       0.504000
     25 H2           7.1390     2.3610     0.1920 h5         1 2YO       0.041800
     26 H3           2.4510     2.4500     0.1660 ha         1 2YO       0.120000
     27 H4           3.6100    -2.4130    -0.0660 ha         1 2YO       0.156000
     28 H5          -0.1750     1.3390     0.0930 hn         1 2YO       0.357000
     29 H7          -1.5480    -2.1320    -0.0460 hn         1 2YO       0.509000
     30 H8          -2.4870     0.3460     1.0200 h1         1 2YO       0.044200
     31 H9          -2.5170     0.5120    -0.7470 h1         1 2YO       0.044200
     32 H10         -3.9830    -1.4980    -0.9240 h1         1 2YO       0.041700
     33 H11         -3.8670    -1.7460     0.8190 h1         1 2YO       0.041700
     34 H13         -6.5490    -1.5410    -0.5020 h1         1 2YO       0.030700
     35 H14         -6.1920    -1.7140     1.2220 h1         1 2YO       0.030700
     36 H15         -8.4720    -0.7650     0.8550 hc         1 2YO       0.047950
     37 H16         -7.4440     0.3450     1.7570 hc         1 2YO       0.047950
     38 H17         -8.1160     0.5060    -1.2460 hc         1 2YO       0.041700
     39 H18         -8.6580     1.6220     0.0080 hc         1 2YO       0.041700
     40 H19         -6.6840     2.5300    -1.3060 hc         1 2YO       0.047950
     41 H20         -6.3350     2.3930     0.4150 hc         1 2YO       0.047950
     42 H21         -4.4380     1.5410    -0.8940 h1         1 2YO       0.030700
     43 H22         -5.4780     0.4190    -1.7820 h1         1 2YO       0.030700
@<TRIPOS>BOND
     1     1     2 2   
     2     2     3 1   
     3     2     4 1   
     4     3     7 2   
     5     4     5 ar  
     6     4    11 ar  
     7     5     6 1   
     8     5     8 ar  
     9     6     7 1   
    10     6    24 1   
    11     7    25 1   
    12     8     9 ar  
    13     8    26 1   
    14     9    10 ar  
    15     9    12 1   
    16    10    11 ar  
    17    10    14 1   
    18    11    27 1   
    19    12    13 1   
    20    12    28 1   
    21    13    14 2   
    22    13    15 1   
    23    15    16 1   
    24    15    29 1   
    25    16    17 1   
    26    16    30 1   
    27    16    31 1   
    28    17    18 1   
    29    17    32 1   
    30    17    33 1   
    31    18    19 1   
    32    18    23 1   
    33    19    20 1   
    34    19    34 1   
    35    19    35 1   
    36    20    21 1   
    37    20    36 1   
    38    20    37 1   
    39    21    22 1   
    40    21    38 1   
    41    21    39 1   
    42    22    23 1   
    43    22    40 1   
    44    22    41 1   
    45    23    42 1   
    46    23    43 1   
@<TRIPOS>SUBSTRUCTURE
     1 2YO         1 TEMP              0 ****  ****    0 ROOT
