@<TRIPOS>MOLECULE
2YO
   43    46     1     0     0
SMALL
bcc


@<TRIPOS>ATOM
      1 O            6.0920    -1.7770     0.2250 o          1 2YO      -0.536100
      2 C1           5.6850    -0.6240     0.1660 c          1 2YO       0.714100
      3 N1           6.5810     0.4230     0.1480 nc         1 2YO      -0.707100
      4 C2           4.2520    -0.3070     0.1120 ca         1 2YO      -0.233600
      5 C15          3.8530     1.0390     0.0430 ca         1 2YO       0.170600
      6 N6           4.8510     1.9890     0.0340 na         1 2YO      -0.711600
      7 C            6.1360     1.6370     0.0850 cd         1 2YO       0.680100
      8 C14          2.5110     1.4160    -0.0130 ca         1 2YO      -0.203000
      9 C13          1.5960     0.3890     0.0040 ca         1 2YO      -0.028200
     10 C4           1.9580    -0.9800     0.0740 ca         1 2YO       0.074400
     11 C3           3.2910    -1.3250     0.1270 ca         1 2YO       0.007000
     12 N5           0.2290     0.3820    -0.0350 na         1 2YO      -0.305300
     13 C5          -0.1710    -0.9270     0.0100 cc         1 2YO       0.661700
     14 N2           0.8330    -1.7680     0.0780 nd         1 2YO      -0.636100
     15 N3          -1.4660    -1.2780    -0.0410 nu         1 2YO      -0.843200
     16 C6          -2.5510    -0.3350     0.1420 c3         1 2YO       0.219800
     17 C7          -3.8790    -1.0280    -0.1380 c3         1 2YO       0.159800
     18 N4          -5.0100    -0.1790     0.1650 n3         1 2YO      -0.725600
     19 C12         -6.2340    -0.9530     0.3010 c6         1 2YO       0.169300
     20 C11         -7.3910    -0.0810     0.7660 c6         1 2YO      -0.075400
     21 C10         -7.6030     1.0890    -0.1860 c6         1 2YO      -0.075400
     22 C9          -6.2950     1.8440    -0.3770 c6         1 2YO      -0.075400
     23 C8          -5.1780     0.8990    -0.7970 c6         1 2YO       0.169300
     24 H1           4.6130     2.9690    -0.0130 hn         1 2YO       0.448800
     25 H2           6.8380     2.4620     0.0720 h5         1 2YO       0.041800
     26 H3           2.2190     2.4570    -0.0680 ha         1 2YO       0.138000
     27 H4           3.6000    -2.3610     0.1800 ha         1 2YO       0.174000
     28 H5          -0.3670     1.1940    -0.0750 hn         1 2YO       0.306700
     29 H7          -1.6460    -2.2420     0.1930 hn         1 2YO       0.453800
     30 H8          -2.5680     0.0770     1.1570 h1         1 2YO       0.044200
     31 H9          -2.4090     0.4970    -0.5510 h1         1 2YO       0.044200
     32 H10         -3.8880    -1.3950    -1.1780 h1         1 2YO       0.041700
     33 H11         -3.9380    -1.9100     0.5060 h1         1 2YO       0.041700
     34 H13         -6.5110    -1.4380    -0.6530 h1         1 2YO       0.030700
     35 H14         -6.0620    -1.7540     1.0240 h1         1 2YO       0.030700
     36 H15         -8.2930    -0.6920     0.8400 hc         1 2YO       0.047950
     37 H16         -7.1740     0.2940     1.7710 hc         1 2YO       0.047950
     38 H17         -7.9480     0.7100    -1.1540 hc         1 2YO       0.041700
     39 H18         -8.3830     1.7550     0.1890 hc         1 2YO       0.041700
     40 H19         -6.4030     2.6270    -1.1300 hc         1 2YO       0.047950
     41 H20         -6.0110     2.3350     0.5580 hc         1 2YO       0.047950
     42 H21         -4.2470     1.4630    -0.8780 h1         1 2YO       0.030700
     43 H22         -5.3940     0.5000    -1.8050 h1         1 2YO       0.030700
@<TRIPOS>BOND
     1     1     2 2   
     2     2     3 1   
     3     2     4 1   
     4     3     7 2   
     5     4     5 ar  
     6     4    11 ar  
     7     5     6 1   
     8     5     8 ar  
     9     6     7 1   
    10     6    24 1   
    11     7    25 1   
    12     8     9 ar  
    13     8    26 1   
    14     9    10 ar  
    15     9    12 1   
    16    10    11 ar  
    17    10    14 1   
    18    11    27 1   
    19    12    13 1   
    20    12    28 1   
    21    13    14 2   
    22    13    15 1   
    23    15    16 1   
    24    15    29 1   
    25    16    17 1   
    26    16    30 1   
    27    16    31 1   
    28    17    18 1   
    29    17    32 1   
    30    17    33 1   
    31    18    19 1   
    32    18    23 1   
    33    19    20 1   
    34    19    34 1   
    35    19    35 1   
    36    20    21 1   
    37    20    36 1   
    38    20    37 1   
    39    21    22 1   
    40    21    38 1   
    41    21    39 1   
    42    22    23 1   
    43    22    40 1   
    44    22    41 1   
    45    23    42 1   
    46    23    43 1   
@<TRIPOS>SUBSTRUCTURE
     1 2YO         1 TEMP              0 ****  ****    0 ROOT
