@<TRIPOS>MOLECULE
2YP
   62    64     1     0     0
SMALL
No Charge or Current Charge


@<TRIPOS>ATOM
      1 C1          -1.6680    -0.0150     0.4880 c6         1 2YP       0.384300
      2 O1          -0.8730     1.1770     0.3920 os         1 2YP      -0.443000
      3 C2          -3.1800     0.3240     0.6680 c6         1 2YP       0.082700
      4 C3          -3.9670    -1.0210     0.6740 c6         1 2YP       0.161300
      5 O3          -5.3820    -0.8030     0.7810 oh         1 2YP      -0.645000
      6 C4          -3.6660    -1.8590    -0.6050 c6         1 2YP       0.094300
      7 OAC         -3.3010     3.2080     1.0360 o          1 2YP      -0.604100
      8 CAA         -3.7030     3.0110     3.4050 c3         1 2YP      -0.180100
      9 N2          -3.4430     1.1030     1.9050 ns         1 2YP      -0.485900
     10 O4          -4.3790    -3.1160    -0.5430 oh         1 2YP      -0.729000
     11 C5          -2.1220    -2.0560    -0.7320 c6         1 2YP       0.156300
     12 C6          -1.7010    -2.8050    -2.0390 c3         1 2YP       0.173600
     13 O6          -0.2740    -2.9020    -2.1990 oh         1 2YP      -0.696000
     14 O5          -1.4770    -0.7600    -0.7280 os         1 2YP      -0.454000
     15 CA4          0.4450     1.1380     1.0060 c6         1 2YP       0.147300
     16 CA3          1.3920     0.0640     0.3610 c6         1 2YP       0.147300
     17 OAH          2.4220    -0.3310     1.3100 os         1 2YP      -0.420000
     18 CAI          3.3390    -1.4260     0.9980 c3         1 2YP       0.019300
     19 CAJ          2.5240    -2.7400     0.8650 c3         1 2YP      -0.099100
     20 CAL          4.4800    -1.5750     2.0700 c          1 2YP       0.731000
     21 OAM          4.4320    -0.9170     3.1030 o          1 2YP      -0.719500
     22 O            5.4210    -2.3130     1.8050 o          1 2YP      -0.719500
     23 CA5          1.0860     2.5620     0.8860 c5         1 2YP       0.114300
     24 OA5          1.2460     2.8950    -0.5100 os         1 2YP      -0.466000
     25 CA6          2.5710     2.6430     1.3530 c5         1 2YP       0.141600
     26 OA6          3.3310     2.3720     0.1370 os         1 2YP      -0.436000
     27 CA1          2.3750     2.1070    -0.9200 c5         1 2YP       0.363300
     28 CA2          1.9590     0.5880    -0.9980 c6         1 2YP       0.030700
     29 NAD          0.9550     0.3400    -2.0630 ns         1 2YP      -0.493900
     30 CAE          1.0980     0.6150    -3.3990 c          1 2YP       0.597100
     31 OAG          2.1370     1.0500    -3.8730 o          1 2YP      -0.621100
     32 CAF         -0.1390     0.3370    -4.2430 c3         1 2YP      -0.183100
     33 H1          -1.3300    -0.6140     1.3470 h2         1 2YP       0.012700
     34 H2          -3.5000     0.9160    -0.2020 h1         1 2YP       0.113700
     35 H3          -3.6270    -1.6040     1.5440 h1         1 2YP       0.035700
     36 H4          -5.7820    -1.6630     0.5170 ho         1 2YP       0.450000
     37 H5          -4.0050    -1.2790    -1.4780 h1         1 2YP       0.059700
     38 H6          -3.7170     4.1060     3.4430 hc         1 2YP       0.058367
     39 H7          -4.6330     2.5810     3.7950 hc         1 2YP       0.058367
     40 H8          -2.9500     2.5920     4.0830 hc         1 2YP       0.058367
     41 H9          -3.6270     0.5940     2.7610 hn         1 2YP       0.305500
     42 H10         -4.4940    -3.4450    -1.4660 ho         1 2YP       0.510000
     43 H11         -1.7530    -2.6360     0.1270 h1         1 2YP       0.059700
     44 H12         -2.1400    -3.8110    -2.0150 h1         1 2YP       0.021700
     45 H13         -2.1380    -2.2760    -2.8960 h1         1 2YP       0.021700
     46 H14         -0.1120    -3.4640    -2.9910 ho         1 2YP       0.511000
     47 H15          0.3170     0.8970     2.0720 h1         1 2YP       0.076700
     48 H16          0.8040    -0.8390     0.1620 h1         1 2YP       0.056700
     49 H17          3.8520    -1.2400     0.0470 h1         1 2YP       0.033700
     50 H18          1.8840    -2.7260    -0.0240 hc         1 2YP       0.021033
     51 H19          3.1950    -3.6000     0.7650 hc         1 2YP       0.021033
     52 H20          1.8970    -2.9000     1.7500 hc         1 2YP       0.021033
     53 H22          0.4450     3.3030     1.3820 h1         1 2YP       0.065700
     54 H23          2.8210     3.6530     1.7050 h1         1 2YP       0.070700
     55 H24          2.8280     1.9310     2.1470 h1         1 2YP       0.070700
     56 H25          2.7670     2.4640    -1.8800 h2         1 2YP       0.090700
     57 H26          2.8530     0.0140    -1.2710 h1         1 2YP       0.117700
     58 H27          0.0480    -0.0240    -1.7780 hn         1 2YP       0.335500
     59 H28         -0.4090    -0.7190    -4.1380 hc         1 2YP       0.054700
     60 H29         -1.0020     0.8420    -3.7940 hc         1 2YP       0.054700
     61 H30         -0.0050     0.6140    -5.2950 hc         1 2YP       0.054700
     62 CAB         -3.4580     2.4750     2.0010 c          1 2YP       0.623100
@<TRIPOS>BOND
     1     1     2 1   
     2     1     3 1   
     3     1    14 1   
     4     1    33 1   
     5     2    15 1   
     6     3     4 1   
     7     3     9 1   
     8     3    34 1   
     9     4     5 1   
    10     4     6 1   
    11     4    35 1   
    12     5    36 1   
    13     6    10 1   
    14     6    11 1   
    15     6    37 1   
    16     7    62 2   
    17     8    38 1   
    18     8    39 1   
    19     8    40 1   
    20     8    62 1   
    21     9    41 1   
    22     9    62 1   
    23    10    42 1   
    24    11    12 1   
    25    11    14 1   
    26    11    43 1   
    27    12    13 1   
    28    12    44 1   
    29    12    45 1   
    30    13    46 1   
    31    15    16 1   
    32    15    23 1   
    33    15    47 1   
    34    16    17 1   
    35    16    28 1   
    36    16    48 1   
    37    17    18 1   
    38    18    19 1   
    39    18    20 1   
    40    18    49 1   
    41    19    50 1   
    42    19    51 1   
    43    19    52 1   
    44    20    21 1   
    45    20    22 1   
    46    23    24 1   
    47    23    25 1   
    48    23    53 1   
    49    24    27 1   
    50    25    26 1   
    51    25    54 1   
    52    25    55 1   
    53    26    27 1   
    54    27    28 1   
    55    27    56 1   
    56    28    29 1   
    57    28    57 1   
    58    29    30 1   
    59    29    58 1   
    60    30    31 2   
    61    30    32 1   
    62    32    59 1   
    63    32    60 1   
    64    32    61 1   
@<TRIPOS>SUBSTRUCTURE
     1 2YP         1 TEMP              0 ****  ****    0 ROOT
