@<TRIPOS>MOLECULE
2YP
   62    64     1     0     0
SMALL
abcg2


@<TRIPOS>ATOM
      1 C1          -1.7150    -0.4670     0.8700 c6         1 2YP       0.384300
      2 O1          -0.7550     0.4940     0.6850 os         1 2YP      -0.443000
      3 C2          -3.0180     0.0660     0.2710 c6         1 2YP       0.082700
      4 C3          -4.0950    -0.9950     0.4470 c6         1 2YP       0.161300
      5 O3          -5.2720    -0.5410    -0.1640 oh         1 2YP      -0.645000
      6 C4          -3.6220    -2.3210    -0.1490 c6         1 2YP       0.094300
      7 OAC         -2.5910     2.6560    -0.7780 o          1 2YP      -0.604100
      8 CAA         -3.3780     3.7030     1.2180 c3         1 2YP      -0.180100
      9 N2          -3.3920     1.3190     0.8680 ns         1 2YP      -0.485900
     10 O4          -4.5940    -3.2910     0.1720 oh         1 2YP      -0.729000
     11 C5          -2.2440    -2.7050     0.4070 c6         1 2YP       0.156300
     12 C6          -1.6800    -3.9290    -0.2820 c3         1 2YP       0.173600
     13 O6          -0.5020    -4.3250     0.3760 oh         1 2YP      -0.696000
     14 O5          -1.3390    -1.6400     0.2040 os         1 2YP      -0.454000
     15 CA4          0.5300     0.2600     1.2320 c6         1 2YP       0.147300
     16 CA3          1.5020     0.0330     0.0640 c6         1 2YP       0.147300
     17 OAH          2.6410    -0.6010     0.5720 os         1 2YP      -0.420000
     18 CAI          3.3740    -1.3580    -0.3700 c3         1 2YP       0.019300
     19 CAJ          2.7260    -2.7220    -0.5960 c3         1 2YP      -0.099100
     20 CAL          4.8200    -1.5390     0.1320 c          1 2YP       0.731000
     21 OAM          5.0560    -1.3080     1.3280 o          1 2YP      -0.719500
     22 O            5.6230    -1.9470    -0.7340 o          1 2YP      -0.719500
     23 CA5          0.8920     1.5130     2.0260 c5         1 2YP       0.114300
     24 OA5          0.8280     2.6320     1.1520 os         1 2YP      -0.466000
     25 CA6          2.3540     1.5720     2.4700 c5         1 2YP       0.141600
     26 OA6          3.0050     2.1760     1.3570 os         1 2YP      -0.436000
     27 CA1          2.0130     2.4980     0.4190 c5         1 2YP       0.363300
     28 CA2          1.8390     1.3820    -0.6200 c6         1 2YP       0.030700
     29 NAD          0.7950     1.7660    -1.5430 ns         1 2YP      -0.493900
     30 CAE          0.9430     1.7760    -2.8800 c          1 2YP       0.597100
     31 OAG          2.0020     1.5290    -3.4430 o          1 2YP      -0.621100
     32 CAF         -0.3000     2.1350    -3.6560 c3         1 2YP      -0.183100
     33 H1          -1.8540    -0.6850     1.9460 h2         1 2YP       0.012700
     34 H2          -2.8500     0.2370    -0.7950 h1         1 2YP       0.113700
     35 H3          -4.2530    -1.1550     1.5280 h1         1 2YP       0.035700
     36 H4          -5.9480    -1.2160    -0.0400 ho         1 2YP       0.450000
     37 H5          -3.5370    -2.1910    -1.2370 h1         1 2YP       0.059700
     38 H6          -3.8680     4.4840     0.6380 hc         1 2YP       0.058367
     39 H7          -4.0000     3.4620     2.0780 hc         1 2YP       0.058367
     40 H8          -2.4350     4.1110     1.5850 hc         1 2YP       0.058367
     41 H9          -3.7590     1.2990     1.8070 hn         1 2YP       0.305500
     42 H10         -4.6970    -3.8950    -0.5690 ho         1 2YP       0.510000
     43 H11         -2.3510    -2.9140     1.4840 h1         1 2YP       0.059700
     44 H12         -2.4380    -4.7210    -0.2600 h1         1 2YP       0.021700
     45 H13         -1.4980    -3.6850    -1.3370 h1         1 2YP       0.021700
     46 H14         -0.0590    -4.9800    -0.1690 ho         1 2YP       0.511000
     47 H15          0.5400    -0.6180     1.8890 h1         1 2YP       0.076700
     48 H16          0.9940    -0.6010    -0.6740 h1         1 2YP       0.056700
     49 H17          3.4130    -0.8260    -1.3320 h1         1 2YP       0.033700
     50 H18          1.6750    -2.6370    -0.8780 hc         1 2YP       0.021033
     51 H19          3.2420    -3.2590    -1.3910 hc         1 2YP       0.021033
     52 H20          2.7710    -3.3290     0.3100 hc         1 2YP       0.021033
     53 H22          0.1900     1.6620     2.8480 h1         1 2YP       0.065700
     54 H23          2.4610     2.2110     3.3520 h1         1 2YP       0.070700
     55 H24          2.7920     0.5990     2.6870 h1         1 2YP       0.070700
     56 H25          2.2480     3.4500    -0.0650 h2         1 2YP       0.090700
     57 H26          2.7610     1.2790    -1.1950 h1         1 2YP       0.117700
     58 H27         -0.1280     1.9250    -1.1630 hn         1 2YP       0.335500
     59 H28         -1.1920     2.2160    -3.0370 hc         1 2YP       0.054700
     60 H29         -0.1470     3.0880    -4.1630 hc         1 2YP       0.054700
     61 H30         -0.4760     1.3840    -4.4260 hc         1 2YP       0.054700
     62 CAB         -3.0800     2.5180     0.3350 c          1 2YP       0.623100
@<TRIPOS>BOND
     1     1     2 1   
     2     1     3 1   
     3     1    14 1   
     4     1    33 1   
     5     2    15 1   
     6     3     4 1   
     7     3     9 1   
     8     3    34 1   
     9     4     5 1   
    10     4     6 1   
    11     4    35 1   
    12     5    36 1   
    13     6    10 1   
    14     6    11 1   
    15     6    37 1   
    16     7    62 2   
    17     8    38 1   
    18     8    39 1   
    19     8    40 1   
    20     8    62 1   
    21     9    41 1   
    22     9    62 1   
    23    10    42 1   
    24    11    12 1   
    25    11    14 1   
    26    11    43 1   
    27    12    13 1   
    28    12    44 1   
    29    12    45 1   
    30    13    46 1   
    31    15    16 1   
    32    15    23 1   
    33    15    47 1   
    34    16    17 1   
    35    16    28 1   
    36    16    48 1   
    37    17    18 1   
    38    18    19 1   
    39    18    20 1   
    40    18    49 1   
    41    19    50 1   
    42    19    51 1   
    43    19    52 1   
    44    20    21 1   
    45    20    22 1   
    46    23    24 1   
    47    23    25 1   
    48    23    53 1   
    49    24    27 1   
    50    25    26 1   
    51    25    54 1   
    52    25    55 1   
    53    26    27 1   
    54    27    28 1   
    55    27    56 1   
    56    28    29 1   
    57    28    57 1   
    58    29    30 1   
    59    29    58 1   
    60    30    31 2   
    61    30    32 1   
    62    32    59 1   
    63    32    60 1   
    64    32    61 1   
@<TRIPOS>SUBSTRUCTURE
     1 2YP         1 TEMP              0 ****  ****    0 ROOT
