@<TRIPOS>MOLECULE
2YQ
   42    46     1     0     0
SMALL
No Charge or Current Charge


@<TRIPOS>ATOM
      1 N1           0.8130     0.9960     2.2220 nc         1 2YQ      -0.419300
      2 N3           0.1870    -0.0650    -1.7080 nu         1 2YQ      -0.948200
      3 C4          -0.3170     3.1960     1.9390 c          1 2YQ       0.556600
      4 C5           1.2090    -0.6720     0.4890 c6         1 2YQ      -0.110300
      5 C6           0.4890    -1.1750    -0.7910 c6         1 2YQ       0.288800
      6 C7          -0.2630     1.1800    -1.2870 ca         1 2YQ       0.366000
      7 C8          -0.9290     2.0250    -2.1790 ca         1 2YQ      -0.224000
      8 C10         -1.2030     3.6770    -0.4080 ca         1 2YQ      -0.147000
      9 C13         -3.0100    -2.2000     0.5110 ca         1 2YQ      -0.146000
     10 C15         -2.0630    -4.0520    -0.7470 ca         1 2YQ      -0.146000
     11 C17          2.6910    -0.6060     0.2360 cc         1 2YQ       0.422800
     12 C14         -3.1100    -3.5050     0.0080 ca         1 2YQ       0.182000
     13 C12         -1.8570    -1.4360     0.2590 ca         1 2YQ      -0.073000
     14 C16         -0.9090    -3.2910    -1.0010 ca         1 2YQ      -0.073000
     15 C11         -0.7920    -1.9770    -0.4990 ca         1 2YQ      -0.141300
     16 N6           3.4020     0.4520    -0.1080 nd         1 2YQ      -0.678000
     17 C18          4.7010    -0.0100    -0.2160 cd         1 2YQ       0.524900
     18 N5           4.8330    -1.3030     0.0480 nc         1 2YQ      -0.534800
     19 N4           3.5590    -1.6760     0.3350 na         1 2YQ      -0.059700
     20 C19          3.2430    -3.0690     0.7000 c3         1 2YQ       0.069900
     21 C3           0.6550     0.6520     0.9380 cd         1 2YQ       0.403900
     22 C2          -0.0520     1.5780     0.0370 ca         1 2YQ      -0.193900
     23 C9          -1.3940     3.2720    -1.7380 ca         1 2YQ       0.219000
     24 F1          -2.0400     4.0870    -2.6000 f          1 2YQ      -0.172000
     25 C1          -0.5320     2.8270     0.4940 ca         1 2YQ      -0.069600
     26 O           -0.6840     4.2510     2.4400 o          1 2YQ      -0.537000
     27 N2           0.3380     2.2160     2.6600 ns         1 2YQ      -0.237900
     28 H1          -0.0390    -0.3050    -2.6750 hn         1 2YQ       0.491000
     29 H2           1.0290    -1.4070     1.2830 hc         1 2YQ       0.091700
     30 H3           1.1730    -1.8690    -1.3050 h1         1 2YQ       0.070700
     31 H4          -1.0920     1.7210    -3.2080 ha         1 2YQ       0.134000
     32 H5          -1.5800     4.6430    -0.0820 ha         1 2YQ       0.160000
     33 H7          -2.1480    -5.0640    -1.1350 ha         1 2YQ       0.137000
     34 H8          -1.8050    -0.4260     0.6530 ha         1 2YQ       0.116500
     35 H9          -0.1050    -3.7290    -1.5900 ha         1 2YQ       0.116500
     36 H10          5.5230     0.6420    -0.4920 h5         1 2YQ       0.067100
     37 H11          2.4610    -3.4590     0.0370 h1         1 2YQ       0.058700
     38 H12          4.1380    -3.6970     0.6050 h1         1 2YQ       0.058700
     39 H13          2.8900    -3.1050     1.7380 h1         1 2YQ       0.058700
     40 H14          0.4850     2.4410     3.6410 hn         1 2YQ       0.353500
     41 H6          -3.8270    -1.7810     1.0930 ha         1 2YQ       0.137000
     42 F2          -4.2190    -4.2370     0.2510 f          1 2YQ      -0.173000
@<TRIPOS>BOND
     1     1    21 2   
     2     1    27 1   
     3     2     5 1   
     4     2     6 1   
     5     2    28 1   
     6     3    25 1   
     7     3    26 2   
     8     3    27 1   
     9     4     5 1   
    10     4    11 1   
    11     4    21 1   
    12     4    29 1   
    13     5    15 1   
    14     5    30 1   
    15     6     7 ar  
    16     6    22 ar  
    17     7    23 ar  
    18     7    31 1   
    19     8    23 ar  
    20     8    25 ar  
    21     8    32 1   
    22     9    12 ar  
    23     9    13 ar  
    24     9    41 1   
    25    10    12 ar  
    26    10    14 ar  
    27    10    33 1   
    28    11    16 2   
    29    11    19 1   
    30    12    42 1   
    31    13    15 ar  
    32    13    34 1   
    33    14    15 ar  
    34    14    35 1   
    35    16    17 1   
    36    17    18 2   
    37    17    36 1   
    38    18    19 1   
    39    19    20 1   
    40    20    37 1   
    41    20    38 1   
    42    20    39 1   
    43    21    22 1   
    44    22    25 ar  
    45    23    24 1   
    46    27    40 1   
@<TRIPOS>SUBSTRUCTURE
     1 2YQ         1 TEMP              0 ****  ****    0 ROOT
