@<TRIPOS>MOLECULE
2YQ
   42    46     1     0     0
SMALL
abcg2


@<TRIPOS>ATOM
      1 N1           0.5940     0.5220     2.3160 nc         1 2YQ      -0.419300
      2 N3           0.3310    -0.1890    -1.6950 nu         1 2YQ      -0.948200
      3 C4          -0.4520     2.7130     2.0990 c          1 2YQ       0.556600
      4 C5           1.2170    -0.8660     0.4590 c6         1 2YQ      -0.110300
      5 C6           0.4260    -1.3100    -0.7930 c6         1 2YQ       0.288800
      6 C7          -0.0670     1.0300    -1.2400 ca         1 2YQ       0.366000
      7 C8          -0.5410     2.0260    -2.0890 ca         1 2YQ      -0.224000
      8 C10         -0.9740     3.5030    -0.1950 ca         1 2YQ      -0.147000
      9 C13         -3.3240    -1.9340    -0.3050 ca         1 2YQ      -0.146000
     10 C15         -2.0770    -3.7400     0.7010 ca         1 2YQ      -0.146000
     11 C17          2.6350    -0.5490     0.1020 cc         1 2YQ       0.422800
     12 C14         -3.2750    -3.1230     0.3910 ca         1 2YQ       0.182000
     13 C12         -2.1320    -1.3380    -0.6980 ca         1 2YQ      -0.073000
     14 C16         -0.9000    -3.1280     0.3010 ca         1 2YQ      -0.073000
     15 C11         -0.9070    -1.9200    -0.3930 ca         1 2YQ      -0.141300
     16 N6           3.1510     0.6520    -0.0380 nd         1 2YQ      -0.678000
     17 C18          4.4260     0.3990    -0.3930 cd         1 2YQ       0.524900
     18 N5           4.7220    -0.8750    -0.4760 nc         1 2YQ      -0.534800
     19 N4           3.5700    -1.4740    -0.1520 na         1 2YQ      -0.059700
     20 C19          3.4590    -2.9130    -0.1580 c3         1 2YQ       0.069900
     21 C3           0.5620     0.3500     1.0450 cd         1 2YQ       0.403900
     22 C2          -0.0070     1.3020     0.1440 ca         1 2YQ      -0.193900
     23 C9          -0.9700     3.2250    -1.5460 ca         1 2YQ       0.219000
     24 F1          -1.4270     4.1550    -2.3910 f          1 2YQ      -0.172000
     25 C1          -0.4800     2.5150     0.6470 ca         1 2YQ      -0.069600
     26 O           -0.8600     3.7140     2.6670 o          1 2YQ      -0.537000
     27 N2           0.0700     1.6610     2.7930 ns         1 2YQ      -0.237900
     28 H1           0.1560    -0.4020    -2.6640 hn         1 2YQ       0.491000
     29 H2           1.1990    -1.6660     1.2030 hc         1 2YQ       0.091700
     30 H3           1.0010    -2.0810    -1.3130 h1         1 2YQ       0.070700
     31 H4          -0.5990     1.8630    -3.1580 ha         1 2YQ       0.134000
     32 H5          -1.3440     4.4450     0.1850 ha         1 2YQ       0.160000
     33 H7          -2.0610    -4.6790     1.2380 ha         1 2YQ       0.137000
     34 H8          -2.1860    -0.4130    -1.2550 ha         1 2YQ       0.116500
     35 H9           0.0400    -3.6170     0.5300 ha         1 2YQ       0.116500
     36 H10          5.1540     1.1700    -0.5910 h5         1 2YQ       0.067100
     37 H11          3.2290    -3.2830    -1.1570 h1         1 2YQ       0.058700
     38 H12          4.3990    -3.3420     0.1760 h1         1 2YQ       0.058700
     39 H13          2.6760    -3.2250     0.5270 h1         1 2YQ       0.058700
     40 H14          0.1120     1.7420     3.8000 hn         1 2YQ       0.353500
     41 H6          -4.2740    -1.4750    -0.5430 ha         1 2YQ       0.137000
     42 F2          -4.4230    -3.7060     0.7710 f          1 2YQ      -0.173000
@<TRIPOS>BOND
     1     1    21 2   
     2     1    27 1   
     3     2     5 1   
     4     2     6 1   
     5     2    28 1   
     6     3    25 1   
     7     3    26 2   
     8     3    27 1   
     9     4     5 1   
    10     4    11 1   
    11     4    21 1   
    12     4    29 1   
    13     5    15 1   
    14     5    30 1   
    15     6     7 ar  
    16     6    22 ar  
    17     7    23 ar  
    18     7    31 1   
    19     8    23 ar  
    20     8    25 ar  
    21     8    32 1   
    22     9    12 ar  
    23     9    13 ar  
    24     9    41 1   
    25    10    12 ar  
    26    10    14 ar  
    27    10    33 1   
    28    11    16 2   
    29    11    19 1   
    30    12    42 1   
    31    13    15 ar  
    32    13    34 1   
    33    14    15 ar  
    34    14    35 1   
    35    16    17 1   
    36    17    18 2   
    37    17    36 1   
    38    18    19 1   
    39    19    20 1   
    40    20    37 1   
    41    20    38 1   
    42    20    39 1   
    43    21    22 1   
    44    22    25 ar  
    45    23    24 1   
    46    27    40 1   
@<TRIPOS>SUBSTRUCTURE
     1 2YQ         1 TEMP              0 ****  ****    0 ROOT
