@<TRIPOS>MOLECULE
2YS
   63    62     1     0     0
SMALL
abcg2


@<TRIPOS>ATOM
      1 N24          4.6080     3.0420     0.4690 n8         1 2YS      -0.981200
      2 C20          4.0050     1.7560     0.7330 c3         1 2YS       0.093500
      3 C21          5.0640     0.6320     0.7430 c3         1 2YS      -0.045700
      4 C22          5.7790     0.4830    -0.5970 c3         1 2YS      -0.087600
      5 C23          6.0640     0.8480     1.8720 c3         1 2YS      -0.087600
      6 C19          2.8830     1.4000    -0.2470 c          1 2YS       0.561100
      7 O25          2.7990     1.9090    -1.3560 o          1 2YS      -0.616100
      8 N18          2.0160     0.4730     0.2000 ns         1 2YS      -0.497900
      9 C5           0.9870    -0.1140    -0.6250 c3         1 2YS       0.032700
     10 C6          -0.2300    -0.3800     0.2540 c          1 2YS       0.593100
     11 O17         -0.1010    -0.8300     1.3830 o          1 2YS      -0.610100
     12 C4           1.4780    -1.4240    -1.2620 c3         1 2YS      -0.093400
     13 C2           0.5540    -2.0580    -2.3040 c3         1 2YS      -0.060700
     14 C3           0.3610    -1.1600    -3.5230 c3         1 2YS      -0.089600
     15 C1           1.1130    -3.4140    -2.7230 c3         1 2YS      -0.089600
     16 C14         -3.3750    -1.5920    -0.2700 c3         1 2YS       0.155300
     17 C11         -3.9020     3.3730     0.6580 c3         1 2YS      -0.080400
     18 C8          -2.7080    -0.3220     0.3070 c3         1 2YS       0.072700
     19 C9          -3.5690     0.9240     0.1140 c3         1 2YS      -0.093400
     20 C10         -2.9500     2.1840     0.7090 c3         1 2YS      -0.074400
     21 C12         -3.2990     4.6310     1.2630 c3         1 2YS       0.149800
     22 N7          -1.4150    -0.1280    -0.3210 ns         1 2YS      -0.501900
     23 N13         -4.2420     5.7400     1.2070 n8         1 2YS      -0.994200
     24 O16         -4.7000    -1.7420     0.1660 oh         1 2YS      -0.642000
     25 C15         -2.6200    -2.8240     0.1830 c3         1 2YS       0.129600
     26 CL1         -3.2230    -4.2910    -0.6600 cl         1 2YS      -0.278000
     27 H37          4.8490     3.1140    -0.5120 hn         1 2YS       0.408000
     28 H38          3.9330     3.7780     0.6370 hn         1 2YS       0.408000
     29 H29          3.5720     1.7930     1.7390 h1         1 2YS       0.067700
     30 H30          4.5360    -0.3060     0.9460 hc         1 2YS       0.038700
     31 H31          6.3460     1.3810    -0.8520 hc         1 2YS       0.039033
     32 H32          6.4890    -0.3430    -0.5550 hc         1 2YS       0.039033
     33 H33          5.0900     0.2800    -1.4190 hc         1 2YS       0.039033
     34 H34          5.5610     0.9210     2.8390 hc         1 2YS       0.039033
     35 H35          6.7690     0.0170     1.9260 hc         1 2YS       0.039033
     36 H36          6.6350     1.7650     1.7230 hc         1 2YS       0.039033
     37 H28          2.1590     0.0690     1.1130 hn         1 2YS       0.333500
     38 H4           0.7470     0.6110    -1.4030 h1         1 2YS       0.088700
     39 H1           2.4420    -1.2120    -1.7370 hc         1 2YS       0.057700
     40 H2           1.6760    -2.1420    -0.4610 hc         1 2YS       0.057700
     41 H20         -0.4300    -2.2360    -1.8550 hc         1 2YS       0.043700
     42 H14          1.3230    -0.9250    -3.9860 hc         1 2YS       0.035867
     43 H15         -0.2590    -1.6520    -4.2740 hc         1 2YS       0.035867
     44 H16         -0.1230    -0.2130    -3.2810 hc         1 2YS       0.035867
     45 H17          1.2040    -4.0880    -1.8700 hc         1 2YS       0.035867
     46 H18          0.4650    -3.8930    -3.4590 hc         1 2YS       0.035867
     47 H19          2.1030    -3.3080    -3.1710 hc         1 2YS       0.035867
     48 H3          -3.3210    -1.5250    -1.3660 h1         1 2YS       0.041700
     49 H5          -4.1900     3.5770    -0.3780 hc         1 2YS       0.046700
     50 H6          -4.8250     3.1190     1.1920 hc         1 2YS       0.046700
     51 H7          -2.5380    -0.4620     1.3780 h1         1 2YS       0.094700
     52 H9          -4.5350     0.7540     0.5930 hc         1 2YS       0.047700
     53 H10         -2.0260     2.4400     0.1830 hc         1 2YS       0.044700
     54 H11         -2.6680     1.9880     1.7480 hc         1 2YS       0.044700
     55 H12         -2.9510     4.4040     2.2810 h1         1 2YS       0.027700
     56 H13         -2.4080     4.9090     0.6920 h1         1 2YS       0.027700
     57 H21         -1.4150     0.2790    -1.2440 hn         1 2YS       0.317500
     58 H22         -5.0250     5.5370     1.8160 hn         1 2YS       0.392000
     59 H23         -3.8090     6.5690     1.5950 hn         1 2YS       0.392000
     60 H27         -5.2640    -1.1420    -0.3300 ho         1 2YS       0.448000
     61 H25         -1.5590    -2.7540    -0.0350 h1         1 2YS       0.081200
     62 H26         -2.7470    -2.9880     1.2530 h1         1 2YS       0.081200
     63 H8          -3.7720     1.0740    -0.9530 hc         1 2YS       0.047700
@<TRIPOS>BOND
     1     1     2 1   
     2     1    27 1   
     3     1    28 1   
     4     2     3 1   
     5     2     6 1   
     6     2    29 1   
     7     3     4 1   
     8     3     5 1   
     9     3    30 1   
    10     4    31 1   
    11     4    32 1   
    12     4    33 1   
    13     5    34 1   
    14     5    35 1   
    15     5    36 1   
    16     6     7 2   
    17     6     8 1   
    18     8     9 1   
    19     8    37 1   
    20     9    10 1   
    21     9    12 1   
    22     9    38 1   
    23    10    11 2   
    24    10    22 1   
    25    12    13 1   
    26    12    39 1   
    27    12    40 1   
    28    13    14 1   
    29    13    15 1   
    30    13    41 1   
    31    14    42 1   
    32    14    43 1   
    33    14    44 1   
    34    15    45 1   
    35    15    46 1   
    36    15    47 1   
    37    16    18 1   
    38    16    24 1   
    39    16    25 1   
    40    16    48 1   
    41    17    20 1   
    42    17    21 1   
    43    17    49 1   
    44    17    50 1   
    45    18    19 1   
    46    18    22 1   
    47    18    51 1   
    48    19    20 1   
    49    19    52 1   
    50    19    63 1   
    51    20    53 1   
    52    20    54 1   
    53    21    23 1   
    54    21    55 1   
    55    21    56 1   
    56    22    57 1   
    57    23    58 1   
    58    23    59 1   
    59    24    60 1   
    60    25    26 1   
    61    25    61 1   
    62    25    62 1   
@<TRIPOS>SUBSTRUCTURE
     1 2YS         1 TEMP              0 ****  ****    0 ROOT
