@<TRIPOS>MOLECULE
2YS
   63    62     1     0     0
SMALL
No Charge or Current Charge


@<TRIPOS>ATOM
      1 N24          5.0330     2.8040     0.8320 n8         1 2YS      -0.981200
      2 C20          4.3900     1.4450     0.8980 c3         1 2YS       0.093500
      3 C21          5.4590     0.3060     0.8540 c3         1 2YS      -0.045700
      4 C22          6.2800     0.2700    -0.4600 c3         1 2YS      -0.087600
      5 C23          6.3870     0.3210     2.0930 c3         1 2YS      -0.087600
      6 C19          3.2520     1.1960    -0.1590 c          1 2YS       0.561100
      7 O25          3.2660     1.6830    -1.2840 o          1 2YS      -0.616100
      8 N18          2.1870     0.4420     0.2910 ns         1 2YS      -0.497900
      9 C5           1.0090     0.0610    -0.5200 c3         1 2YS       0.032700
     10 C6          -0.1800    -0.2790     0.4270 c          1 2YS       0.593100
     11 O17         -0.0220    -0.6270     1.5910 o          1 2YS      -0.610100
     12 C4           1.3890    -1.1240    -1.4580 c3         1 2YS      -0.093400
     13 C2           0.3240    -1.5590    -2.5060 c3         1 2YS      -0.060700
     14 C3          -0.0460    -0.4230    -3.4900 c3         1 2YS      -0.089600
     15 C1           0.7970    -2.8130    -3.2760 c3         1 2YS      -0.089600
     16 C14         -3.2530    -1.8270     0.3130 c3         1 2YS       0.155300
     17 C11         -4.2630     3.2580     0.2190 c3         1 2YS      -0.080400
     18 C8          -2.7060    -0.3860     0.5820 c3         1 2YS       0.072700
     19 C9          -3.7170     0.7360     0.2200 c3         1 2YS      -0.093400
     20 C10         -3.2100     2.1690     0.5220 c3         1 2YS      -0.074400
     21 C12         -3.7540     4.6830     0.5200 c3         1 2YS       0.149800
     22 N7          -1.4370    -0.1490    -0.1270 ns         1 2YS      -0.501900
     23 N13         -4.7800     5.6990     0.2200 n8         1 2YS      -0.994200
     24 O16         -4.4740    -2.0390     1.0490 oh         1 2YS      -0.642000
     25 C15         -2.2380    -2.9440     0.6780 c3         1 2YS       0.129600
     26 Cl1         -2.8610    -4.6120     0.2780 cl         1 2YS      -0.278000
     27 H37          5.3930     2.9440    -0.1200 hn         1 2YS       0.408000
     28 H38          4.3050     3.5260     0.9070 hn         1 2YS       0.408000
     29 H29          3.8970     1.3820     1.8780 h1         1 2YS       0.067700
     30 H30          4.9070    -0.6420     0.9010 hc         1 2YS       0.038700
     31 H31          6.8820     1.1790    -0.5780 hc         1 2YS       0.039033
     32 H32          6.9630    -0.5890    -0.4620 hc         1 2YS       0.039033
     33 H33          5.6260     0.1730    -1.3340 hc         1 2YS       0.039033
     34 H34          5.8000     0.2980     3.0190 hc         1 2YS       0.039033
     35 H35          7.0470    -0.5550     2.0920 hc         1 2YS       0.039033
     36 H36          7.0160     1.2190     2.1070 hc         1 2YS       0.039033
     37 H28          2.2290     0.1090     1.2500 hn         1 2YS       0.333500
     38 H4           0.7130     0.9310    -1.1200 h1         1 2YS       0.088700
     39 H1           2.3080    -0.8640    -1.9980 hc         1 2YS       0.057700
     40 H2           1.6410    -1.9880    -0.8300 hc         1 2YS       0.057700
     41 H20         -0.5890    -1.8520    -1.9760 hc         1 2YS       0.043700
     42 H14          0.8430    -0.0690    -4.0280 hc         1 2YS       0.035867
     43 H15         -0.7730    -0.7770    -4.2310 hc         1 2YS       0.035867
     44 H16         -0.4950     0.4300    -2.9710 hc         1 2YS       0.035867
     45 H17          1.0050    -3.6380    -2.5840 hc         1 2YS       0.035867
     46 H18          0.0260    -3.1500    -3.9790 hc         1 2YS       0.035867
     47 H19          1.7110    -2.6020    -3.8440 hc         1 2YS       0.035867
     48 H3          -3.4550    -1.9110    -0.7640 h1         1 2YS       0.041700
     49 H5          -4.5530     3.1940    -0.8370 hc         1 2YS       0.046700
     50 H6          -5.1640     3.0620     0.8140 hc         1 2YS       0.046700
     51 H7          -2.5140    -0.3100     1.6620 h1         1 2YS       0.094700
     52 H9          -4.6470     0.5810     0.7790 hc         1 2YS       0.047700
     53 H10         -2.3090     2.3770    -0.0680 hc         1 2YS       0.044700
     54 H11         -2.9210     2.2320     1.5790 hc         1 2YS       0.044700
     55 H12         -3.4800     4.7620     1.5820 h1         1 2YS       0.027700
     56 H13         -2.8630     4.8930    -0.0870 h1         1 2YS       0.027700
     57 H21         -1.4790     0.1570    -1.0910 hn         1 2YS       0.317500
     58 H22         -5.5830     5.5560     0.8440 hn         1 2YS       0.392000
     59 H23         -4.4240     6.6230     0.4930 hn         1 2YS       0.392000
     60 H27         -5.1960    -1.5990     0.5500 ho         1 2YS       0.448000
     61 H25         -1.3050    -2.8150     0.1170 h1         1 2YS       0.081200
     62 H26         -2.0110    -2.9150     1.7510 h1         1 2YS       0.081200
     63 H8          -3.9730     0.6630    -0.8450 hc         1 2YS       0.047700
@<TRIPOS>BOND
     1     1     2 1   
     2     1    27 1   
     3     1    28 1   
     4     2     3 1   
     5     2     6 1   
     6     2    29 1   
     7     3     4 1   
     8     3     5 1   
     9     3    30 1   
    10     4    31 1   
    11     4    32 1   
    12     4    33 1   
    13     5    34 1   
    14     5    35 1   
    15     5    36 1   
    16     6     7 2   
    17     6     8 1   
    18     8     9 1   
    19     8    37 1   
    20     9    10 1   
    21     9    12 1   
    22     9    38 1   
    23    10    11 2   
    24    10    22 1   
    25    12    13 1   
    26    12    39 1   
    27    12    40 1   
    28    13    14 1   
    29    13    15 1   
    30    13    41 1   
    31    14    42 1   
    32    14    43 1   
    33    14    44 1   
    34    15    45 1   
    35    15    46 1   
    36    15    47 1   
    37    16    18 1   
    38    16    24 1   
    39    16    25 1   
    40    16    48 1   
    41    17    20 1   
    42    17    21 1   
    43    17    49 1   
    44    17    50 1   
    45    18    19 1   
    46    18    22 1   
    47    18    51 1   
    48    19    20 1   
    49    19    52 1   
    50    19    63 1   
    51    20    53 1   
    52    20    54 1   
    53    21    23 1   
    54    21    55 1   
    55    21    56 1   
    56    22    57 1   
    57    23    58 1   
    58    23    59 1   
    59    24    60 1   
    60    25    26 1   
    61    25    61 1   
    62    25    62 1   
@<TRIPOS>SUBSTRUCTURE
     1 2YS         1 TEMP              0 ****  ****    0 ROOT
