@<TRIPOS>MOLECULE
2YT
   70    71     1     0     0
SMALL
No Charge or Current Charge


@<TRIPOS>ATOM
      1 N1           4.7450     1.0910    -0.3770 n8         1 2YT      -0.985200
      2 C2           3.5210     0.7960     0.4410 c3         1 2YT       0.094500
      3 C10          2.1440     0.9800    -0.2990 c          1 2YT       0.612100
      4 O34          1.7600     2.0630    -0.7270 o          1 2YT      -0.603100
      5 C3           3.5540     1.6130     1.7580 c3         1 2YT      -0.074100
      6 C4           4.8190     1.3880     2.5840 ca         1 2YT      -0.088300
      7 C5           5.0340     0.1530     3.2280 ca         1 2YT      -0.110000
      8 C9           5.7800     2.4110     2.7140 ca         1 2YT      -0.110000
      9 C6           6.1970    -0.0580     3.9890 ca         1 2YT      -0.106000
     10 C8           6.9430     2.2000     3.4750 ca         1 2YT      -0.106000
     11 C7           7.1530     0.9650     4.1120 ca         1 2YT      -0.108000
     12 N11          1.3860    -0.1680    -0.4240 ns         1 2YT      -0.484900
     13 C12          0.0650    -0.2560    -1.0890 c3         1 2YT       0.039700
     14 C20         -0.8860    -1.1800    -0.2770 c          1 2YT       0.587100
     15 O33         -0.4940    -1.9310     0.6080 o          1 2YT      -0.602100
     16 C13          0.2040    -0.7500    -2.5540 c3         1 2YT      -0.040100
     17 C14          1.0890     0.1420    -3.4170 ca         1 2YT      -0.086300
     18 C19          0.5730     1.3330    -3.9630 ca         1 2YT      -0.104500
     19 C15          2.4260    -0.2160    -3.6780 ca         1 2YT      -0.104500
     20 C18          1.3850     2.1590    -4.7600 ca         1 2YT      -0.103500
     21 C16          3.2390     0.6100    -4.4740 ca         1 2YT      -0.103500
     22 C17          2.7180     1.7970    -5.0160 ca         1 2YT      -0.103000
     23 N21         -2.2200    -1.1020    -0.6280 ns         1 2YT      -0.502900
     24 C22         -3.3090    -1.8640     0.0070 c3         1 2YT       0.072700
     25 C23         -4.5110    -0.9240     0.2940 c3         1 2YT      -0.086400
     26 C24         -4.1660     0.2910     1.1920 c3         1 2YT      -0.094400
     27 C25         -5.3950     1.1640     1.5130 c3         1 2YT       0.215800
     28 N26         -5.0080     2.3000     2.3610 nu         1 2YT      -0.949400
     29 C27         -5.8480     3.1930     2.8470 c2         1 2YT       0.791100
     30 N28         -6.9360     3.4580     2.3170 n2         1 2YT      -0.903100
     31 N29         -5.0990     4.0480     3.4720 nv         1 2YT      -1.021200
     32 C30         -3.6980    -3.1210    -0.8350 c3         1 2YT       0.152300
     33 O31         -4.6960    -3.8910    -0.1390 oh         1 2YT      -0.635000
     34 C32         -2.4890    -4.0350    -1.1610 c3         1 2YT       0.089600
     35 Cl1         -2.9940    -5.5360    -2.0640 cl         1 2YT      -0.268000
     36 H9           4.6940     2.0600    -0.7130 hn         1 2YT       0.409500
     37 H10          5.5580     1.0990     0.2510 hn         1 2YT       0.409500
     38 H14          3.5800    -0.2650     0.7240 h1         1 2YT       0.067700
     39 H12          3.4330     2.6780     1.5240 hc         1 2YT       0.066200
     40 H13          2.6780     1.3410     2.3600 hc         1 2YT       0.066200
     41 H1           4.2990    -0.6440     3.1410 ha         1 2YT       0.110000
     42 H5           5.6280     3.3710     2.2260 ha         1 2YT       0.110000
     43 H2           6.3580    -1.0140     4.4840 ha         1 2YT       0.114500
     44 H4           7.6810     2.9930     3.5710 ha         1 2YT       0.114500
     45 H3           8.0530     0.8020     4.7020 ha         1 2YT       0.115000
     46 H15          1.7680    -1.0130    -0.0130 hn         1 2YT       0.324500
     47 H6          -0.3970     0.7400    -1.0970 h1         1 2YT       0.079700
     48 H7           0.5960    -1.7750    -2.5450 hc         1 2YT       0.061700
     49 H8          -0.7920    -0.8180    -3.0090 hc         1 2YT       0.061700
     50 H20         -0.4580     1.6220    -3.7680 ha         1 2YT       0.108000
     51 H16          2.8390    -1.1310    -3.2600 ha         1 2YT       0.108000
     52 H19          0.9810     3.0780    -5.1790 ha         1 2YT       0.115500
     53 H17          4.2710     0.3300    -4.6700 ha         1 2YT       0.115500
     54 H18          3.3470     2.4360    -5.6330 ha         1 2YT       0.116000
     55 H21         -2.4600    -0.4450    -1.3620 hn         1 2YT       0.316500
     56 H22         -2.9490    -2.2280     0.9790 h1         1 2YT       0.081700
     57 H23         -4.9240    -0.5650    -0.6580 hc         1 2YT       0.055200
     58 H24         -5.3080    -1.4980     0.7830 hc         1 2YT       0.055200
     59 H25         -3.7250    -0.0700     2.1290 hc         1 2YT       0.060200
     60 H26         -3.4110     0.9140     0.6970 hc         1 2YT       0.060200
     61 H27         -5.8340     1.5260     0.5730 h1         1 2YT       0.036200
     62 H28         -6.1480     0.5520     2.0280 h1         1 2YT       0.036200
     63 H29         -4.2530     2.1220     3.0120 hn         1 2YT       0.477000
     64 H30         -7.1150     2.6910     1.6630 hn         1 2YT       0.381400
     65 H31         -4.2510     4.1860     2.9460 hn         1 2YT       0.459500
     66 H32         -5.6090     4.9080     3.6140 hn         1 2YT       0.459500
     67 H33         -4.1050    -2.7660    -1.7930 h1         1 2YT       0.084700
     68 H34         -4.8130    -4.7260    -0.6450 ho         1 2YT       0.445000
     69 H35         -1.7660    -3.5050    -1.7930 h1         1 2YT       0.072700
     70 H36         -1.9890    -4.3510    -0.2370 h1         1 2YT       0.072700
@<TRIPOS>BOND
     1     1     2 1   
     2     1    36 1   
     3     1    37 1   
     4     2     3 1   
     5     2     5 1   
     6     2    38 1   
     7     3     4 2   
     8     3    12 1   
     9     5     6 1   
    10     5    39 1   
    11     5    40 1   
    12     6     7 ar  
    13     6     8 ar  
    14     7     9 ar  
    15     7    41 1   
    16     8    10 ar  
    17     8    42 1   
    18     9    11 ar  
    19     9    43 1   
    20    10    11 ar  
    21    10    44 1   
    22    11    45 1   
    23    12    13 1   
    24    12    46 1   
    25    13    14 1   
    26    13    16 1   
    27    13    47 1   
    28    14    15 2   
    29    14    23 1   
    30    16    17 1   
    31    16    48 1   
    32    16    49 1   
    33    17    18 ar  
    34    17    19 ar  
    35    18    20 ar  
    36    18    50 1   
    37    19    21 ar  
    38    19    51 1   
    39    20    22 ar  
    40    20    52 1   
    41    21    22 ar  
    42    21    53 1   
    43    22    54 1   
    44    23    24 1   
    45    23    55 1   
    46    24    25 1   
    47    24    32 1   
    48    24    56 1   
    49    25    26 1   
    50    25    57 1   
    51    25    58 1   
    52    26    27 1   
    53    26    59 1   
    54    26    60 1   
    55    27    28 1   
    56    27    61 1   
    57    27    62 1   
    58    28    29 1   
    59    28    63 1   
    60    29    30 2   
    61    29    31 1   
    62    30    64 1   
    63    31    65 1   
    64    31    66 1   
    65    32    33 1   
    66    32    34 1   
    67    32    67 1   
    68    33    68 1   
    69    34    35 1   
    70    34    69 1   
    71    34    70 1   
@<TRIPOS>SUBSTRUCTURE
     1 2YT         1 TEMP              0 ****  ****    0 ROOT
