@<TRIPOS>MOLECULE
2YT
   70    71     1     0     0
SMALL
bcc


@<TRIPOS>ATOM
      1 N1           2.5730     2.8810     1.0810 n8         1 2YT      -0.874800
      2 C2           2.5590     1.4880     0.6970 c3         1 2YT       0.094500
      3 C10          1.2600     1.1860    -0.0330 c          1 2YT       0.679100
      4 O34          0.1990     1.6920     0.2950 o          1 2YT      -0.603100
      5 C3           2.6780     0.4730     1.8610 c3         1 2YT      -0.074100
      6 C4           3.9370     0.6820     2.6490 ca         1 2YT      -0.088300
      7 C5           5.1370     0.1100     2.2300 ca         1 2YT      -0.128000
      8 C9           3.9470     1.4890     3.7840 ca         1 2YT      -0.128000
      9 C6           6.3150     0.3340     2.9270 ca         1 2YT      -0.124000
     10 C8           5.1240     1.7180     4.4860 ca         1 2YT      -0.124000
     11 C7           6.3120     1.1410     4.0590 ca         1 2YT      -0.126000
     12 N11          1.3520     0.2880    -1.0300 ns         1 2YT      -0.551900
     13 C12          0.1720    -0.2680    -1.6300 c3         1 2YT       0.039700
     14 C20         -0.6290    -1.0530    -0.5880 c          1 2YT       0.654100
     15 O33         -0.0790    -1.6630     0.3120 o          1 2YT      -0.602100
     16 C13          0.5490    -1.2020    -2.7880 c3         1 2YT      -0.040100
     17 C14          1.3060    -0.4830    -3.8710 ca         1 2YT      -0.086300
     18 C19          0.6370     0.3630    -4.7540 ca         1 2YT      -0.122500
     19 C15          2.6840    -0.6230    -3.9960 ca         1 2YT      -0.122500
     20 C18          1.3310     1.0560    -5.7350 ca         1 2YT      -0.121500
     21 C16          3.3840     0.0690    -4.9780 ca         1 2YT      -0.121500
     22 C17          2.7080     0.9120    -5.8490 ca         1 2YT      -0.121000
     23 N21         -1.9550    -1.0510    -0.8020 ns         1 2YT      -0.569900
     24 C22         -2.9330    -1.6820     0.0600 c3         1 2YT       0.072700
     25 C23         -3.9650    -0.6510     0.5130 c3         1 2YT      -0.086400
     26 C24         -3.3340     0.5100     1.2710 c3         1 2YT      -0.094400
     27 C25         -4.3810     1.5110     1.7330 c3         1 2YT       0.215800
     28 N26         -3.7480     2.6400     2.3750 nu         1 2YT      -0.894200
     29 C27         -4.4830     3.6930     2.8530 c2         1 2YT       0.791100
     30 N28         -5.7400     3.8890     2.6950 n2         1 2YT      -0.903100
     31 N29         -3.7320     4.5950     3.5790 nv         1 2YT      -0.910800
     32 C30         -3.5850    -2.8790    -0.6600 c3         1 2YT       0.129100
     33 O31         -4.6000    -3.4610     0.1120 oh         1 2YT      -0.572800
     34 C32         -2.5250    -3.8950    -1.0610 c3         1 2YT       0.013000
     35 CL1         -3.2690    -5.2730    -1.9380 cl         1 2YT      -0.191400
     36 H9           1.8620     3.0570     1.7800 hn         1 2YT       0.354300
     37 H10          3.4610     3.1060     1.5120 hn         1 2YT       0.354300
     38 H14          3.4000     1.3220     0.0160 h1         1 2YT       0.067700
     39 H12          1.8040     0.5810     2.5100 hc         1 2YT       0.066200
     40 H13          2.6490    -0.5420     1.4580 hc         1 2YT       0.066200
     41 H1           5.1470    -0.5240     1.3500 ha         1 2YT       0.128000
     42 H5           3.0220     1.9350     4.1310 ha         1 2YT       0.128000
     43 H2           7.2370    -0.1240     2.5900 ha         1 2YT       0.132500
     44 H4           5.1110     2.3450     5.3680 ha         1 2YT       0.132500
     45 H3           7.2300     1.3150     4.6060 ha         1 2YT       0.133000
     46 H15          2.2410    -0.1500    -1.2110 hn         1 2YT       0.324500
     47 H6          -0.4430     0.5460    -2.0240 h1         1 2YT       0.079700
     48 H7           1.1380    -2.0380    -2.4020 hc         1 2YT       0.061700
     49 H8          -0.3710    -1.6280    -3.1940 hc         1 2YT       0.061700
     50 H20         -0.4380     0.4780    -4.6770 ha         1 2YT       0.126000
     51 H16          3.2210    -1.2850    -3.3250 ha         1 2YT       0.126000
     52 H19          0.7940     1.7050    -6.4150 ha         1 2YT       0.133500
     53 H17          4.4560    -0.0540    -5.0610 ha         1 2YT       0.133500
     54 H18          3.2510     1.4500    -6.6150 ha         1 2YT       0.134000
     55 H21         -2.3140    -0.4690    -1.5440 hn         1 2YT       0.316500
     56 H22         -2.3950    -2.0520     0.9390 h1         1 2YT       0.081700
     57 H23         -4.5050    -0.2730    -0.3630 hc         1 2YT       0.055200
     58 H24         -4.7050    -1.1450     1.1440 hc         1 2YT       0.055200
     59 H25         -2.7910     0.1250     2.1400 hc         1 2YT       0.060200
     60 H26         -2.6000     1.0220     0.6440 hc         1 2YT       0.060200
     61 H27         -4.9470     1.8650     0.8660 h1         1 2YT       0.036200
     62 H28         -5.0990     1.0130     2.3990 h1         1 2YT       0.036200
     63 H29         -2.9040     2.4280     2.8840 hn         1 2YT       0.421800
     64 H30         -6.1900     3.0960     2.2530 hn         1 2YT       0.381400
     65 H31         -2.7870     4.7400     3.2610 hn         1 2YT       0.404300
     66 H32         -4.2110     5.4650     3.7500 hn         1 2YT       0.404300
     67 H33         -4.0710    -2.5100    -1.5690 h1         1 2YT       0.084700
     68 H34         -4.2150    -3.8170     0.9210 ho         1 2YT       0.406000
     69 H35         -1.7880    -3.4590    -1.7300 h1         1 2YT       0.072700
     70 H36         -2.0110    -4.3050    -0.1900 h1         1 2YT       0.072700
@<TRIPOS>BOND
     1     1     2 1   
     2     1    36 1   
     3     1    37 1   
     4     2     3 1   
     5     2     5 1   
     6     2    38 1   
     7     3     4 2   
     8     3    12 1   
     9     5     6 1   
    10     5    39 1   
    11     5    40 1   
    12     6     7 ar  
    13     6     8 ar  
    14     7     9 ar  
    15     7    41 1   
    16     8    10 ar  
    17     8    42 1   
    18     9    11 ar  
    19     9    43 1   
    20    10    11 ar  
    21    10    44 1   
    22    11    45 1   
    23    12    13 1   
    24    12    46 1   
    25    13    14 1   
    26    13    16 1   
    27    13    47 1   
    28    14    15 2   
    29    14    23 1   
    30    16    17 1   
    31    16    48 1   
    32    16    49 1   
    33    17    18 ar  
    34    17    19 ar  
    35    18    20 ar  
    36    18    50 1   
    37    19    21 ar  
    38    19    51 1   
    39    20    22 ar  
    40    20    52 1   
    41    21    22 ar  
    42    21    53 1   
    43    22    54 1   
    44    23    24 1   
    45    23    55 1   
    46    24    25 1   
    47    24    32 1   
    48    24    56 1   
    49    25    26 1   
    50    25    57 1   
    51    25    58 1   
    52    26    27 1   
    53    26    59 1   
    54    26    60 1   
    55    27    28 1   
    56    27    61 1   
    57    27    62 1   
    58    28    29 1   
    59    28    63 1   
    60    29    30 2   
    61    29    31 1   
    62    30    64 1   
    63    31    65 1   
    64    31    66 1   
    65    32    33 1   
    66    32    34 1   
    67    32    67 1   
    68    33    68 1   
    69    34    35 1   
    70    34    69 1   
    71    34    70 1   
@<TRIPOS>SUBSTRUCTURE
     1 2YT         1 TEMP              0 ****  ****    0 ROOT
