@<TRIPOS>MOLECULE
2YU
   16    16     1     0     0
SMALL
No Charge or Current Charge


@<TRIPOS>ATOM
      1 S1           1.9780     1.4570    -0.3690 s          1 2YU      -0.633400
      2 C1           0.6170     0.4770    -0.2390 cs         1 2YU       0.328600
      3 C2          -0.7020     1.0450    -0.1570 cc         1 2YU      -0.249200
      4 C3          -1.8670     0.3120    -0.0350 cd         1 2YU       0.010800
      5 C6          -3.2220     0.9630     0.0450 c3         1 2YU      -0.062900
      6 C4          -1.7290    -1.1170     0.0050 cd         1 2YU      -0.261000
      7 C5          -0.4720    -1.6820    -0.0730 cc         1 2YU      -0.035400
      8 N1           0.6810    -0.9130    -0.1890 n          1 2YU      -0.006500
      9 O1           1.9400    -1.5900    -0.2670 oh         1 2YU      -0.448100
     10 H1          -0.7430     2.1280    -0.1950 ha         1 2YU       0.225000
     11 H2          -3.6410     1.1170    -0.9570 hc         1 2YU       0.056700
     12 H3          -3.9290     0.3470     0.6120 hc         1 2YU       0.056700
     13 H4          -3.1680     1.9400     0.5390 hc         1 2YU       0.056700
     14 H5          -2.6070    -1.7530     0.0940 ha         1 2YU       0.210000
     15 H6          -0.2570    -2.7460    -0.0580 h4         1 2YU       0.232000
     16 H7           2.2810    -1.5690     0.6560 ho         1 2YU       0.522000
@<TRIPOS>BOND
     1     1     2 2   
     2     2     3 1   
     3     2     8 1   
     4     3     4 2   
     5     3    10 1   
     6     4     5 1   
     7     4     6 1   
     8     5    11 1   
     9     5    12 1   
    10     5    13 1   
    11     6     7 2   
    12     6    14 1   
    13     7     8 1   
    14     7    15 1   
    15     8     9 1   
    16     9    16 1   
@<TRIPOS>SUBSTRUCTURE
     1 2YU         1 TEMP              0 ****  ****    0 ROOT
