@<TRIPOS>MOLECULE
2YU
   16    16     1     0     0
SMALL
abcg2


@<TRIPOS>ATOM
      1 S1           2.0930     1.1850     0.0680 s          1 2YU      -0.633400
      2 C1           0.5980     0.3920     0.0080 cs         1 2YU       0.328600
      3 C2          -0.6680     1.0060     0.0200 cc         1 2YU      -0.249200
      4 C3          -1.8400     0.2890    -0.0310 cd         1 2YU       0.010800
      5 C6          -3.1740     0.9630    -0.0140 c3         1 2YU      -0.062900
      6 C4          -1.7580    -1.1150    -0.0990 cd         1 2YU      -0.261000
      7 C5          -0.5360    -1.7160    -0.1120 cc         1 2YU      -0.035400
      8 N1           0.5800    -0.9690    -0.0590 n          1 2YU      -0.006500
      9 O1           1.7470    -1.6450    -0.0750 oh         1 2YU      -0.448100
     10 H1          -0.6890     2.0860     0.0710 ha         1 2YU       0.225000
     11 H2          -3.7370     0.7200    -0.9160 hc         1 2YU       0.056700
     12 H3          -3.7650     0.6180     0.8350 hc         1 2YU       0.056700
     13 H4          -3.0780     2.0450     0.0500 hc         1 2YU       0.056700
     14 H5          -2.6430    -1.7330    -0.1420 ha         1 2YU       0.210000
     15 H6          -0.3960    -2.7850    -0.1620 h4         1 2YU       0.232000
     16 H7           2.4270    -0.9270    -0.0300 ho         1 2YU       0.522000
@<TRIPOS>BOND
     1     1     2 2   
     2     2     3 1   
     3     2     8 1   
     4     3     4 2   
     5     3    10 1   
     6     4     5 1   
     7     4     6 1   
     8     5    11 1   
     9     5    12 1   
    10     5    13 1   
    11     6     7 2   
    12     6    14 1   
    13     7     8 1   
    14     7    15 1   
    15     8     9 1   
    16     9    16 1   
@<TRIPOS>SUBSTRUCTURE
     1 2YU         1 TEMP              0 ****  ****    0 ROOT
