@<TRIPOS>MOLECULE
2YV
   40    43     1     0     0
SMALL
No Charge or Current Charge


@<TRIPOS>ATOM
      1 C1          -3.5420     0.6910    -0.0480 ca         1 2YV      -0.226600
      2 C2          -2.1980     1.1300    -0.0400 ca         1 2YV      -0.025000
      3 C3          -1.1970     0.1540    -0.0390 ca         1 2YV      -0.120200
      4 C4          -1.4760    -1.1840    -0.0450 ca         1 2YV       0.159400
      5 C5          -2.8010    -1.6330    -0.0530 ca         1 2YV      -0.092000
      6 C6          -3.8570    -0.6950    -0.0540 ca         1 2YV       0.213400
      7 C7          -4.6600     1.6660    -0.0510 c          1 2YV       0.591600
      8 O8          -4.5150     2.8790    -0.0530 o          1 2YV      -0.555000
      9 N9          -5.1720    -1.1950    -0.0610 nc         1 2YV      -0.700100
     10 C10         -6.0640    -0.2360    -0.0600 cd         1 2YV       0.703800
     11 N11         -7.3180    -0.6550    -0.0590 nv         1 2YV      -1.037200
     12 N12         -5.8790     1.0920    -0.0550 ns         1 2YV      -0.452400
     13 N13          0.1630     0.3100    -0.0330 na         1 2YV      -0.356600
     14 N14         -0.3180    -1.9470    -0.0430 nc         1 2YV      -0.662100
     15 C15          0.6160    -1.0000    -0.0360 cd         1 2YV       0.680700
     16 N16          1.9120    -1.3500    -0.0310 nu         1 2YV      -0.900400
     17 C17          3.0740    -0.4530    -0.0170 c3         1 2YV       0.225800
     18 C18          4.3910    -1.2520    -0.0140 c3         1 2YV      -0.042100
     19 C19          7.8590     1.3630     0.0280 ca         1 2YV      -0.105000
     20 C20          7.2900     0.9300     1.2380 ca         1 2YV      -0.107500
     21 C21          6.1690     0.0820     1.2240 ca         1 2YV      -0.104000
     22 C22          5.6110    -0.3380     0.0010 ca         1 2YV      -0.089300
     23 C23          6.1840     0.1010    -1.2090 ca         1 2YV      -0.104000
     24 C24          7.3060     0.9490    -1.1950 ca         1 2YV      -0.107500
     25 H1          -1.9450     2.1890    -0.0360 ha         1 2YV       0.136000
     26 H2          -3.0140    -2.6970    -0.0580 ha         1 2YV       0.145000
     27 H3          -7.4140    -1.6460     0.1250 hn         1 2YV       0.484000
     28 H4          -8.0100    -0.0620     0.3830 hn         1 2YV       0.484000
     29 H5          -6.6690     1.7140    -0.0780 hn         1 2YV       0.325500
     30 H6           0.7210     1.1490    -0.0280 hn         1 2YV       0.358000
     31 H8           2.0540    -2.3570    -0.0310 hn         1 2YV       0.510000
     32 H9           3.0520     0.2000    -0.9000 h1         1 2YV       0.041200
     33 H10          3.0400     0.1860     0.8760 h1         1 2YV       0.041200
     34 H11          4.4080    -1.9150     0.8590 hc         1 2YV       0.058200
     35 H12          4.4200    -1.9010    -0.8970 hc         1 2YV       0.058200
     36 H14          7.7170     1.2510     2.1850 ha         1 2YV       0.115000
     37 H15          5.7340    -0.2470     2.1650 ha         1 2YV       0.112500
     38 H16          5.7610    -0.2130    -2.1610 ha         1 2YV       0.112500
     39 H17          7.7450     1.2850    -2.1320 ha         1 2YV       0.115000
     40 H13          8.7270     2.0200     0.0390 ha         1 2YV       0.115000
@<TRIPOS>BOND
     1     1     2 ar  
     2     1     6 ar  
     3     1     7 1   
     4     2     3 ar  
     5     2    25 1   
     6     3     4 ar  
     7     3    13 1   
     8     4     5 ar  
     9     4    14 1   
    10     5     6 ar  
    11     5    26 1   
    12     6     9 1   
    13     7     8 2   
    14     7    12 1   
    15     9    10 2   
    16    10    11 1   
    17    10    12 1   
    18    11    27 1   
    19    11    28 1   
    20    12    29 1   
    21    13    15 1   
    22    13    30 1   
    23    14    15 2   
    24    15    16 1   
    25    16    17 1   
    26    16    31 1   
    27    17    18 1   
    28    17    32 1   
    29    17    33 1   
    30    18    22 1   
    31    18    34 1   
    32    18    35 1   
    33    19    20 ar  
    34    19    24 ar  
    35    19    40 1   
    36    20    21 ar  
    37    20    36 1   
    38    21    22 ar  
    39    21    37 1   
    40    22    23 ar  
    41    23    24 ar  
    42    23    38 1   
    43    24    39 1   
@<TRIPOS>SUBSTRUCTURE
     1 2YV         1 TEMP              0 ****  ****    0 ROOT
