@<TRIPOS>MOLECULE
2YV
   40    43     1     0     0
SMALL
abcg2


@<TRIPOS>ATOM
      1 C1          -3.3990     0.6830    -0.1360 ca         1 2YV      -0.226600
      2 C2          -2.0560     1.0760    -0.2310 ca         1 2YV      -0.025000
      3 C3          -1.1170     0.0910    -0.1190 ca         1 2YV      -0.120200
      4 C4          -1.4490    -1.2730     0.0810 ca         1 2YV       0.159400
      5 C5          -2.7760    -1.6530     0.1770 ca         1 2YV      -0.092000
      6 C6          -3.7620    -0.6720     0.0690 ca         1 2YV       0.213400
      7 C7          -4.4420     1.6690    -0.2720 c          1 2YV       0.591600
      8 O8          -4.2890     2.8690    -0.4740 o          1 2YV      -0.555000
      9 N9          -5.0770    -1.0640     0.1770 nc         1 2YV      -0.700100
     10 C10         -5.9890    -0.1730     0.0430 cd         1 2YV       0.703800
     11 N11         -7.3090    -0.5130     0.0570 nv         1 2YV      -1.037200
     12 N12         -5.7180     1.1520    -0.1780 ns         1 2YV      -0.452400
     13 N13          0.2620     0.1020    -0.1640 na         1 2YV      -0.356600
     14 N14         -0.3190    -2.0340     0.1490 nc         1 2YV      -0.662100
     15 C15          0.6700    -1.1880    -0.0040 cd         1 2YV       0.680700
     16 N16          1.9680    -1.5440    -0.0320 nu         1 2YV      -0.900400
     17 C17          3.0610    -0.6070     0.0680 c3         1 2YV       0.225800
     18 C18          4.3950    -1.3110    -0.1600 c3         1 2YV      -0.042100
     19 C19          7.6010     1.5360     0.1270 ca         1 2YV      -0.105000
     20 C20          7.1880     0.8360     1.2510 ca         1 2YV      -0.107500
     21 C21          6.1630    -0.0940     1.1520 ca         1 2YV      -0.104000
     22 C22          5.5380    -0.3390    -0.0670 ca         1 2YV      -0.089300
     23 C23          5.9610     0.3690    -1.1880 ca         1 2YV      -0.104000
     24 C24          6.9850     1.3000    -1.0930 ca         1 2YV      -0.107500
     25 H1          -1.7920     2.1120    -0.3910 ha         1 2YV       0.136000
     26 H2          -3.0560    -2.6860     0.3320 ha         1 2YV       0.145000
     27 H3          -7.4950    -1.4700     0.3040 hn         1 2YV       0.484000
     28 H4          -7.9900     0.1460     0.3910 hn         1 2YV       0.484000
     29 H5          -6.4740     1.8040    -0.3240 hn         1 2YV       0.325500
     30 H6           0.8410     0.9130    -0.2880 hn         1 2YV       0.358000
     31 H8           2.1340    -2.4980     0.2460 hn         1 2YV       0.510000
     32 H9           2.9490     0.1680    -0.6970 h1         1 2YV       0.041200
     33 H10          3.0780    -0.0980     1.0400 h1         1 2YV       0.041200
     34 H11          4.5210    -2.1030     0.5830 hc         1 2YV       0.058200
     35 H12          4.3800    -1.7940    -1.1390 hc         1 2YV       0.058200
     36 H14          7.6680     1.0080     2.2050 ha         1 2YV       0.115000
     37 H15          5.8520    -0.6420     2.0340 ha         1 2YV       0.112500
     38 H16          5.4920     0.1850    -2.1470 ha         1 2YV       0.112500
     39 H17          7.3040     1.8400    -1.9750 ha         1 2YV       0.115000
     40 H13          8.4020     2.2590     0.1990 ha         1 2YV       0.115000
@<TRIPOS>BOND
     1     1     2 ar  
     2     1     6 ar  
     3     1     7 1   
     4     2     3 ar  
     5     2    25 1   
     6     3     4 ar  
     7     3    13 1   
     8     4     5 ar  
     9     4    14 1   
    10     5     6 ar  
    11     5    26 1   
    12     6     9 1   
    13     7     8 2   
    14     7    12 1   
    15     9    10 2   
    16    10    11 1   
    17    10    12 1   
    18    11    27 1   
    19    11    28 1   
    20    12    29 1   
    21    13    15 1   
    22    13    30 1   
    23    14    15 2   
    24    15    16 1   
    25    16    17 1   
    26    16    31 1   
    27    17    18 1   
    28    17    32 1   
    29    17    33 1   
    30    18    22 1   
    31    18    34 1   
    32    18    35 1   
    33    19    20 ar  
    34    19    24 ar  
    35    19    40 1   
    36    20    21 ar  
    37    20    36 1   
    38    21    22 ar  
    39    21    37 1   
    40    22    23 ar  
    41    23    24 ar  
    42    23    38 1   
    43    24    39 1   
@<TRIPOS>SUBSTRUCTURE
     1 2YV         1 TEMP              0 ****  ****    0 ROOT
