@<TRIPOS>MOLECULE
2YW
   46    49     1     0     0
SMALL
abcg2


@<TRIPOS>ATOM
      1 C1          -4.7880    -0.8420    -0.1990 ca         1 2YW      -0.230600
      2 C2          -3.4080    -1.0420    -0.3560 ca         1 2YW      -0.024000
      3 C3          -2.5960     0.0430    -0.1690 ca         1 2YW      -0.122200
      4 C4          -3.0990     1.3260     0.1680 ca         1 2YW       0.160400
      5 C5          -4.4620     1.5160     0.3190 ca         1 2YW      -0.095000
      6 C6          -5.3220     0.4260     0.1380 ca         1 2YW       0.216400
      7 C7          -5.6980    -1.9540    -0.3830 c          1 2YW       0.593600
      8 N8          -6.6690     0.6320     0.3030 nc         1 2YW      -0.701100
      9 C9          -7.4630    -0.3720     0.1310 cd         1 2YW       0.704800
     10 N10         -8.8030    -0.2200     0.2270 nv         1 2YW      -1.034200
     11 N11         -7.0240    -1.6260    -0.2010 ns         1 2YW      -0.453400
     12 N12         -1.2290     0.2150    -0.2340 na         1 2YW      -0.354600
     13 N13         -2.0730     2.2180     0.2960 nc         1 2YW      -0.663100
     14 C14         -0.9800     1.5210     0.0510 cd         1 2YW       0.678700
     15 N15          0.2580     2.0360     0.0520 nu         1 2YW      -0.901400
     16 C16          1.4590     1.2310     0.0050 c3         1 2YW       0.226800
     17 C17          2.6850     2.1350    -0.0690 c3         1 2YW      -0.048100
     18 O18         -5.3780    -3.0970    -0.6750 o          1 2YW      -0.552000
     19 C19          6.2570    -0.2620    -0.1760 ca         1 2YW      -0.139600
     20 C20          7.4790    -1.0990    -0.2680 c          1 2YW       0.605700
     21 O21          8.0310    -1.3280     0.9130 os         1 2YW      -0.441100
     22 C22          9.2130    -2.1290     0.9470 c3         1 2YW       0.153900
     23 C23          5.5990     0.0790    -1.3560 ca         1 2YW      -0.052000
     24 C24          4.4580     0.8610    -1.3200 ca         1 2YW      -0.123500
     25 C25          3.9450     1.3200    -0.1090 ca         1 2YW      -0.059300
     26 C26          4.6050     0.9730     1.0670 ca         1 2YW      -0.123500
     27 C27          5.7490     0.1930     1.0400 ca         1 2YW      -0.052000
     28 O28          7.9250    -1.5260    -1.3060 o          1 2YW      -0.486000
     29 H1          -3.0180    -2.0180    -0.6150 ha         1 2YW       0.135000
     30 H2          -4.8700     2.4840     0.5780 ha         1 2YW       0.145000
     31 H3          -9.1180     0.6380     0.6480 hn         1 2YW       0.486500
     32 H4          -9.3770    -1.0220     0.4290 hn         1 2YW       0.486500
     33 H5          -7.6980    -2.3680    -0.3370 hn         1 2YW       0.323500
     34 H6          -0.5500    -0.5030    -0.4300 hn         1 2YW       0.358000
     35 H8           0.3290     2.9620     0.4460 hn         1 2YW       0.512000
     36 H9           1.5370     0.5750     0.8790 h1         1 2YW       0.042700
     37 H10          1.4370     0.5910    -0.8810 h1         1 2YW       0.042700
     38 H11          2.6130     2.7670    -0.9570 hc         1 2YW       0.062200
     39 H12          2.6990     2.7970     0.8010 hc         1 2YW       0.062200
     40 H13          9.0240    -3.1330     0.5690 h1         1 2YW       0.050367
     41 H14         10.0190    -1.6730     0.3730 h1         1 2YW       0.050367
     42 H15          9.5020    -2.1860     1.9920 h1         1 2YW       0.050367
     43 H16          5.9830    -0.2630    -2.3080 ha         1 2YW       0.136000
     44 H17          3.9620     1.1200    -2.2480 ha         1 2YW       0.119500
     45 H18          4.2230     1.3200     2.0190 ha         1 2YW       0.119500
     46 H19          6.2380    -0.0530     1.9720 ha         1 2YW       0.136000
@<TRIPOS>BOND
     1     1     2 ar  
     2     1     6 ar  
     3     1     7 1   
     4     2     3 ar  
     5     2    29 1   
     6     3     4 ar  
     7     3    12 1   
     8     4     5 ar  
     9     4    13 1   
    10     5     6 ar  
    11     5    30 1   
    12     6     8 1   
    13     7    11 1   
    14     7    18 2   
    15     8     9 2   
    16     9    10 1   
    17     9    11 1   
    18    10    31 1   
    19    10    32 1   
    20    11    33 1   
    21    12    14 1   
    22    12    34 1   
    23    13    14 2   
    24    14    15 1   
    25    15    16 1   
    26    15    35 1   
    27    16    17 1   
    28    16    36 1   
    29    16    37 1   
    30    17    25 1   
    31    17    38 1   
    32    17    39 1   
    33    19    20 1   
    34    19    23 ar  
    35    19    27 ar  
    36    20    21 1   
    37    20    28 2   
    38    21    22 1   
    39    22    40 1   
    40    22    41 1   
    41    22    42 1   
    42    23    24 ar  
    43    23    43 1   
    44    24    25 ar  
    45    24    44 1   
    46    25    26 ar  
    47    26    27 ar  
    48    26    45 1   
    49    27    46 1   
@<TRIPOS>SUBSTRUCTURE
     1 2YW         1 TEMP              0 ****  ****    0 ROOT
