@<TRIPOS>MOLECULE
2YW
   46    49     1     0     0
SMALL
No Charge or Current Charge


@<TRIPOS>ATOM
      1 C1          -4.9790    -0.8640    -0.1090 ca         1 2YW      -0.230600
      2 C2          -3.5930    -1.1350    -0.1730 ca         1 2YW      -0.024000
      3 C3          -2.7150    -0.0510    -0.0790 ca         1 2YW      -0.122200
      4 C4          -3.1510     1.2350     0.0690 ca         1 2YW       0.160400
      5 C5          -4.5200     1.5190     0.1340 ca         1 2YW      -0.095000
      6 C6          -5.4560     0.4650     0.0450 ca         1 2YW       0.216400
      7 C7          -5.9730    -1.9620    -0.2030 c          1 2YW       0.593600
      8 N8          -6.8210     0.8000     0.1160 nc         1 2YW      -0.701100
      9 C9          -7.5920    -0.2550     0.0240 cd         1 2YW       0.704800
     10 N10         -8.8870     0.0060     0.0930 nv         1 2YW      -1.034200
     11 N11         -7.2510    -1.5420    -0.1220 ns         1 2YW      -0.453400
     12 N12         -1.3470    -0.0400    -0.1120 na         1 2YW      -0.354600
     13 N13         -2.0930     2.1290     0.1380 nc         1 2YW      -0.663100
     14 C14         -1.0530     1.3080     0.0240 cd         1 2YW       0.678700
     15 N15          0.1920     1.8100     0.0460 nu         1 2YW      -0.901400
     16 C16          1.4520     1.0630    -0.0340 c3         1 2YW       0.226800
     17 C17          2.6630     2.0120     0.0340 c3         1 2YW      -0.048100
     18 O18         -5.6850    -3.1400    -0.3430 o          1 2YW      -0.552000
     19 C19          6.4350    -0.1640    -0.2040 ca         1 2YW      -0.139600
     20 C20          7.7410    -0.9190    -0.3090 c          1 2YW       0.605700
     21 O21          8.2510    -1.3150     0.9020 os         1 2YW      -0.441100
     22 C22          9.4940    -2.0420     0.9130 c3         1 2YW       0.153900
     23 C23          5.7970     0.3030    -1.3750 ca         1 2YW      -0.052000
     24 C24          4.5820     1.0060    -1.2960 ca         1 2YW      -0.123500
     25 C25          3.9830     1.2560    -0.0490 ca         1 2YW      -0.059300
     26 C26          4.6120     0.7920     1.1210 ca         1 2YW      -0.123500
     27 C27          5.8270     0.0880     1.0470 ca         1 2YW      -0.052000
     28 O28          8.2900    -1.1520    -1.3790 o          1 2YW      -0.486000
     29 H1          -3.2150    -2.1490    -0.2910 ha         1 2YW       0.135000
     30 H2          -4.8570     2.5430     0.2520 ha         1 2YW       0.145000
     31 H3          -9.0920     0.9520     0.3880 hn         1 2YW       0.486500
     32 H4          -9.4890    -0.7100     0.4790 hn         1 2YW       0.486500
     33 H5          -7.9610    -2.2500    -0.2020 hn         1 2YW       0.323500
     34 H6          -0.6930    -0.8010    -0.2120 hn         1 2YW       0.358000
     35 H8           0.2110     2.8190     0.1690 hn         1 2YW       0.512000
     36 H9           1.5130     0.3430     0.7940 h1         1 2YW       0.042700
     37 H10          1.4920     0.4980    -0.9750 h1         1 2YW       0.042700
     38 H11          2.5960     2.7400    -0.7830 hc         1 2YW       0.062200
     39 H12          2.6180     2.5870     0.9670 hc         1 2YW       0.062200
     40 H13          9.4060    -2.9780     0.3470 h1         1 2YW       0.050367
     41 H14         10.3020    -1.4430     0.4720 h1         1 2YW       0.050367
     42 H15          9.7810    -2.2930     1.9420 h1         1 2YW       0.050367
     43 H16          6.2410     0.1220    -2.3520 ha         1 2YW       0.136000
     44 H17          4.1060     1.3550    -2.2100 ha         1 2YW       0.119500
     45 H18          4.1580     0.9750     2.0930 ha         1 2YW       0.119500
     46 H19          6.2880    -0.2570     1.9700 ha         1 2YW       0.136000
@<TRIPOS>BOND
     1     1     2 ar  
     2     1     6 ar  
     3     1     7 1   
     4     2     3 ar  
     5     2    29 1   
     6     3     4 ar  
     7     3    12 1   
     8     4     5 ar  
     9     4    13 1   
    10     5     6 ar  
    11     5    30 1   
    12     6     8 1   
    13     7    11 1   
    14     7    18 2   
    15     8     9 2   
    16     9    10 1   
    17     9    11 1   
    18    10    31 1   
    19    10    32 1   
    20    11    33 1   
    21    12    14 1   
    22    12    34 1   
    23    13    14 2   
    24    14    15 1   
    25    15    16 1   
    26    15    35 1   
    27    16    17 1   
    28    16    36 1   
    29    16    37 1   
    30    17    25 1   
    31    17    38 1   
    32    17    39 1   
    33    19    20 1   
    34    19    23 ar  
    35    19    27 ar  
    36    20    21 1   
    37    20    28 2   
    38    21    22 1   
    39    22    40 1   
    40    22    41 1   
    41    22    42 1   
    42    23    24 ar  
    43    23    43 1   
    44    24    25 ar  
    45    24    44 1   
    46    25    26 ar  
    47    26    27 ar  
    48    26    45 1   
    49    27    46 1   
@<TRIPOS>SUBSTRUCTURE
     1 2YW         1 TEMP              0 ****  ****    0 ROOT
