@<TRIPOS>MOLECULE
2YX
   41    44     1     0     0
SMALL
No Charge or Current Charge


@<TRIPOS>ATOM
      1 O            4.9590    -3.0690    -0.0560 o          1 2YX      -0.552000
      2 C17          5.2000    -1.8730    -0.0090 c          1 2YX       0.593600
      3 N6           6.4610    -1.3990     0.0380 ns         1 2YX      -0.453400
      4 C            6.7630    -0.0900     0.1000 cc         1 2YX       0.706800
      5 N            8.0510     0.2020     0.1380 nv         1 2YX      -1.036200
      6 C16          4.1630    -0.8130     0.0060 ca         1 2YX      -0.230600
      7 C1           4.5840     0.5420     0.0730 ca         1 2YX       0.216400
      8 N1           5.9370     0.9250     0.1240 nd         1 2YX      -0.702100
      9 C15          2.7870    -1.1410    -0.0440 ca         1 2YX      -0.025000
     10 C14          1.8750    -0.0830    -0.0230 ca         1 2YX      -0.121200
     11 C3           2.2590     1.2260     0.0410 ca         1 2YX       0.161400
     12 C2           3.6140     1.5680     0.0910 ca         1 2YX      -0.096000
     13 N5           0.5130    -0.0860    -0.0590 na         1 2YX      -0.356600
     14 C4           0.1290     1.2370    -0.0130 cc         1 2YX       0.682700
     15 N2           1.1560     2.0810     0.0480 nd         1 2YX      -0.664100
     16 N3          -1.1480     1.6690    -0.0280 nu         1 2YX      -0.909400
     17 C5          -2.3600     0.8440    -0.0040 c3         1 2YX       0.231800
     18 C6          -3.6270     1.7210    -0.0150 c3         1 2YX      -0.049100
     19 C7          -4.8990     0.8830     0.0060 ca         1 2YX      -0.066300
     20 C13         -5.4830     0.5100     1.2310 ca         1 2YX      -0.109500
     21 C12         -6.6540    -0.2690     1.2520 ca         1 2YX      -0.069000
     22 C10         -7.2510    -0.6810     0.0450 ca         1 2YX      -0.013000
     23 C11         -8.4480    -1.4770     0.0650 cg         1 2YX       0.319000
     24 N4          -9.4150    -2.1310     0.0820 n1         1 2YX      -0.444000
     25 C9          -6.6670    -0.3100    -1.1820 ca         1 2YX      -0.069000
     26 C8          -5.4960     0.4680    -1.2000 ca         1 2YX      -0.109500
     27 H1           7.2010    -2.0800     0.0540 hn         1 2YX       0.323500
     28 H2           8.6790    -0.4380    -0.3300 hn         1 2YX       0.487500
     29 H3           8.2530     1.1850     0.0010 hn         1 2YX       0.487500
     30 H4           2.4470    -2.1740    -0.0950 ha         1 2YX       0.135000
     31 H5           3.9140     2.6100     0.1420 ha         1 2YX       0.145000
     32 H6          -0.1080    -0.8780    -0.1100 hn         1 2YX       0.357000
     33 H8          -1.2250     2.6800     0.0570 hn         1 2YX       0.516000
     34 H9          -2.3770     0.1790    -0.8790 h1         1 2YX       0.042700
     35 H10         -2.3670     0.2150     0.8970 h1         1 2YX       0.042700
     36 H11         -3.6060     2.3940     0.8510 hc         1 2YX       0.063200
     37 H12         -3.6130     2.3610    -0.9060 hc         1 2YX       0.063200
     38 H13         -5.0300     0.8210     2.1700 ha         1 2YX       0.121500
     39 H14         -7.0950    -0.5500     2.2060 ha         1 2YX       0.129500
     40 H15         -7.1180    -0.6240    -2.1210 ha         1 2YX       0.129500
     41 H16         -5.0530     0.7470    -2.1530 ha         1 2YX       0.121500
@<TRIPOS>BOND
     1     1     2 2   
     2     2     3 1   
     3     2     6 1   
     4     3     4 1   
     5     3    27 1   
     6     4     5 1   
     7     4     8 2   
     8     5    28 1   
     9     5    29 1   
    10     6     7 ar  
    11     6     9 ar  
    12     7     8 1   
    13     7    12 ar  
    14     9    10 ar  
    15     9    30 1   
    16    10    11 ar  
    17    10    13 1   
    18    11    12 ar  
    19    11    15 1   
    20    12    31 1   
    21    13    14 1   
    22    13    32 1   
    23    14    15 2   
    24    14    16 1   
    25    16    17 1   
    26    16    33 1   
    27    17    18 1   
    28    17    34 1   
    29    17    35 1   
    30    18    19 1   
    31    18    36 1   
    32    18    37 1   
    33    19    20 ar  
    34    19    26 ar  
    35    20    21 ar  
    36    20    38 1   
    37    21    22 ar  
    38    21    39 1   
    39    22    23 1   
    40    22    25 ar  
    41    23    24 3   
    42    25    26 ar  
    43    25    40 1   
    44    26    41 1   
@<TRIPOS>SUBSTRUCTURE
     1 2YX         1 TEMP              0 ****  ****    0 ROOT
