@<TRIPOS>MOLECULE
2YX
   41    44     1     0     0
SMALL
bcc


@<TRIPOS>ATOM
      1 O            4.7210    -3.0620    -0.1830 o          1 2YX      -0.627500
      2 C17          4.9840    -1.8710    -0.1010 c          1 2YX       0.736100
      3 N6           6.2950    -1.4490    -0.0620 ns         1 2YX      -0.520400
      4 C            6.6730    -0.1360     0.0250 cc         1 2YX       0.706800
      5 N            8.0030     0.0970     0.0920 nv         1 2YX      -0.925800
      6 C16          4.0180    -0.7940    -0.0320 ca         1 2YX      -0.230600
      7 C1           4.4890     0.5370     0.0660 ca         1 2YX       0.216400
      8 N1           5.8290     0.8400     0.0860 nd         1 2YX      -0.702100
      9 C15          2.6460    -1.0900    -0.0650 ca         1 2YX      -0.043000
     10 C14          1.7800    -0.0340     0.0050 ca         1 2YX      -0.121200
     11 C3           2.2200     1.3110     0.1080 ca         1 2YX       0.161400
     12 C2           3.5740     1.5950     0.1380 ca         1 2YX      -0.114000
     13 N5           0.4030     0.0550    -0.0050 na         1 2YX      -0.306300
     14 C4           0.0900     1.3750     0.0870 cc         1 2YX       0.682700
     15 N2           1.1490     2.1580     0.1590 nd         1 2YX      -0.664100
     16 N3          -1.1750     1.8170     0.0760 nu         1 2YX      -0.854200
     17 C5          -2.3320     0.9510     0.1410 c3         1 2YX       0.231800
     18 C6          -3.6010     1.7690    -0.0760 c3         1 2YX      -0.049100
     19 C7          -4.8170     0.8900    -0.0450 ca         1 2YX      -0.066300
     20 C13         -5.4180     0.5540     1.1670 ca         1 2YX      -0.127500
     21 C12         -6.5240    -0.2760     1.2060 ca         1 2YX      -0.087000
     22 C10         -7.0420    -0.7850     0.0150 ca         1 2YX      -0.013000
     23 C11         -8.1870    -1.6350     0.0440 cg         1 2YX       0.229800
     24 N4          -9.1120    -2.3220     0.0670 n1         1 2YX      -0.354800
     25 C9          -6.4500    -0.4600    -1.2060 ca         1 2YX      -0.087000
     26 C8          -5.3440     0.3700    -1.2250 ca         1 2YX      -0.127500
     27 H1           7.0050    -2.1700    -0.0910 hn         1 2YX       0.323500
     28 H2           8.6460    -0.5920    -0.2620 hn         1 2YX       0.432300
     29 H3           8.2900     1.0520    -0.0400 hn         1 2YX       0.432300
     30 H4           2.3040    -2.1130    -0.1430 ha         1 2YX       0.153000
     31 H5           3.9350     2.6130     0.2140 ha         1 2YX       0.163000
     32 H6          -0.2410    -0.7180    -0.0430 hn         1 2YX       0.306700
     33 H8          -1.2940     2.7910     0.3050 hn         1 2YX       0.460800
     34 H9          -2.2610     0.1890    -0.6390 h1         1 2YX       0.042700
     35 H10         -2.3860     0.4290     1.1030 h1         1 2YX       0.042700
     36 H11         -3.6760     2.5330     0.7020 hc         1 2YX       0.063200
     37 H12         -3.5360     2.2870    -1.0360 hc         1 2YX       0.063200
     38 H13         -5.0220     0.9510     2.0930 ha         1 2YX       0.139500
     39 H14         -6.9870    -0.5250     2.1510 ha         1 2YX       0.147500
     40 H15         -6.8560    -0.8510    -2.1290 ha         1 2YX       0.147500
     41 H16         -4.8890     0.6230    -2.1750 ha         1 2YX       0.139500
@<TRIPOS>BOND
     1     1     2 2   
     2     2     3 1   
     3     2     6 1   
     4     3     4 1   
     5     3    27 1   
     6     4     5 1   
     7     4     8 2   
     8     5    28 1   
     9     5    29 1   
    10     6     7 ar  
    11     6     9 ar  
    12     7     8 1   
    13     7    12 ar  
    14     9    10 ar  
    15     9    30 1   
    16    10    11 ar  
    17    10    13 1   
    18    11    12 ar  
    19    11    15 1   
    20    12    31 1   
    21    13    14 1   
    22    13    32 1   
    23    14    15 2   
    24    14    16 1   
    25    16    17 1   
    26    16    33 1   
    27    17    18 1   
    28    17    34 1   
    29    17    35 1   
    30    18    19 1   
    31    18    36 1   
    32    18    37 1   
    33    19    20 ar  
    34    19    26 ar  
    35    20    21 ar  
    36    20    38 1   
    37    21    22 ar  
    38    21    39 1   
    39    22    23 1   
    40    22    25 ar  
    41    23    24 3   
    42    25    26 ar  
    43    25    40 1   
    44    26    41 1   
@<TRIPOS>SUBSTRUCTURE
     1 2YX         1 TEMP              0 ****  ****    0 ROOT
