@<TRIPOS>MOLECULE
2YY
   42    45     1     0     0
SMALL
No Charge or Current Charge


@<TRIPOS>ATOM
      1 C1          -4.6090    -0.8580    -0.0020 ca         1 2YY      -0.238600
      2 C2          -3.2290    -1.1580    -0.0730 ca         1 2YY      -0.024000
      3 C3          -2.3310    -0.0870    -0.0580 ca         1 2YY      -0.120200
      4 C4          -2.7410     1.2130     0.0220 ca         1 2YY       0.170400
      5 C5          -4.1030     1.5260     0.0920 ca         1 2YY      -0.107000
      6 C6          -5.0590     0.4870     0.0810 ca         1 2YY       0.211400
      7 C7          -5.6240    -1.9410    -0.0110 c          1 2YY       0.594600
      8 N8          -6.4160     0.8510     0.1520 nc         1 2YY      -0.699100
      9 C9          -7.2080    -0.1920     0.1330 cd         1 2YY       0.696800
     10 N10         -8.4980     0.0960     0.1910 nv         1 2YY      -1.038200
     11 N11         -6.8920    -1.4930     0.0580 ns         1 2YY      -0.454400
     12 N12         -0.9640    -0.1040    -0.1140 na         1 2YY      -0.356600
     13 N13         -1.6670     2.0900     0.0200 nc         1 2YY      -0.687100
     14 C14         -0.6440     1.2430    -0.0620 cd         1 2YY       0.701700
     15 N15          0.6070     1.7250    -0.0900 nu         1 2YY      -0.908400
     16 C16          1.8560     0.9530    -0.0640 c3         1 2YY       0.223800
     17 C17          3.0860     1.8830    -0.0550 c3         1 2YY      -0.028100
     18 O18         -5.3580    -3.1310    -0.0730 o          1 2YY      -0.558000
     19 C19          6.8260    -0.3690     0.0160 ca         1 2YY      -0.121600
     20 C20          8.1280    -1.1560     0.0400 c          1 2YY       0.711600
     21 O21          8.6470    -1.4650    -1.0240 o          1 2YY      -0.717000
     22 C22          6.2240    -0.0010    -1.2110 ca         1 2YY      -0.088000
     23 C23          5.0200     0.7250    -1.2310 ca         1 2YY      -0.134000
     24 C24          4.3940     1.1010    -0.0300 ca         1 2YY      -0.136300
     25 C25          4.9830     0.7390     1.1940 ca         1 2YY      -0.134000
     26 C26          6.1860     0.0120     1.2190 ca         1 2YY      -0.088000
     27 O27          8.6140    -1.4530     1.1230 o          1 2YY      -0.717000
     28 H1          -2.8720    -2.1850    -0.1360 ha         1 2YY       0.135000
     29 H2          -4.4200     2.5620     0.1540 ha         1 2YY       0.140000
     30 H4          -8.7000     1.0790     0.0550 hn         1 2YY       0.482000
     31 H5          -9.1420    -0.5480    -0.2490 hn         1 2YY       0.482000
     32 H6          -0.3240    -0.8800    -0.1810 hn         1 2YY       0.365000
     33 H8           0.6410     2.7360     0.0100 hn         1 2YY       0.518000
     34 H9           1.8830     0.3150     0.8310 h1         1 2YY       0.046700
     35 H10          1.9100     0.2990    -0.9450 h1         1 2YY       0.046700
     36 H11          3.0530     2.5310    -0.9390 hc         1 2YY       0.042700
     37 H12          3.0290     2.5460     0.8170 hc         1 2YY       0.042700
     38 H13          6.6870    -0.2790    -2.1550 ha         1 2YY       0.130000
     39 H14          4.5750     0.9950    -2.1860 ha         1 2YY       0.085000
     40 H15          4.5080     1.0190     2.1320 ha         1 2YY       0.085000
     41 H16          6.6200    -0.2550     2.1800 ha         1 2YY       0.130000
     42 H3          -7.6150    -2.1930     0.0740 hn         1 2YY       0.317500
@<TRIPOS>BOND
     1     1     2 ar  
     2     1     6 ar  
     3     1     7 1   
     4     2     3 ar  
     5     2    28 1   
     6     3     4 ar  
     7     3    12 1   
     8     4     5 ar  
     9     4    13 1   
    10     5     6 ar  
    11     5    29 1   
    12     6     8 1   
    13     7    11 1   
    14     7    18 2   
    15     8     9 2   
    16     9    10 1   
    17     9    11 1   
    18    10    30 1   
    19    10    31 1   
    20    11    42 1   
    21    12    14 1   
    22    12    32 1   
    23    13    14 2   
    24    14    15 1   
    25    15    16 1   
    26    15    33 1   
    27    16    17 1   
    28    16    34 1   
    29    16    35 1   
    30    17    24 1   
    31    17    36 1   
    32    17    37 1   
    33    19    20 1   
    34    19    22 ar  
    35    19    26 ar  
    36    20    21 1   
    37    20    27 1   
    38    22    23 ar  
    39    22    38 1   
    40    23    24 ar  
    41    23    39 1   
    42    24    25 ar  
    43    25    26 ar  
    44    25    40 1   
    45    26    41 1   
@<TRIPOS>SUBSTRUCTURE
     1 2YY         1 TEMP              0 ****  ****    0 ROOT
