@<TRIPOS>MOLECULE
2YY
   42    45     1     0     0
SMALL
bcc


@<TRIPOS>ATOM
      1 C1          -4.4760    -0.8410    -0.0270 ca         1 2YY      -0.238600
      2 C2          -3.0970    -1.1040    -0.0840 ca         1 2YY      -0.042000
      3 C3          -2.2560    -0.0270    -0.0500 ca         1 2YY      -0.120200
      4 C4          -2.7270     1.3100     0.0370 ca         1 2YY       0.170400
      5 C5          -4.0870     1.5600     0.0920 ca         1 2YY      -0.125000
      6 C6          -4.9770     0.4800     0.0600 ca         1 2YY       0.211400
      7 C7          -5.4170    -1.9420    -0.0570 c          1 2YY       0.737100
      8 N8          -6.3220     0.7500     0.1110 nc         1 2YY      -0.699100
      9 C9          -7.1440    -0.2460     0.0870 cd         1 2YY       0.696800
     10 N10         -8.4770    -0.0450     0.1920 nv         1 2YY      -0.927800
     11 N11         -6.7370    -1.5500     0.0050 ns         1 2YY      -0.521400
     12 N12         -0.8820     0.0950    -0.0830 na         1 2YY      -0.306300
     13 N13         -1.6780     2.1830     0.0560 nc         1 2YY      -0.687100
     14 C14         -0.5990     1.4250    -0.0180 cd         1 2YY       0.701700
     15 N15          0.6510     1.8930    -0.0350 nu         1 2YY      -0.853200
     16 C16          1.8380     1.0660    -0.0220 c3         1 2YY       0.223800
     17 C17          3.0830     1.9470    -0.0550 c3         1 2YY      -0.028100
     18 O18         -5.1270    -3.1270    -0.1290 o          1 2YY      -0.633500
     19 C19          6.6600    -0.4780     0.0070 ca         1 2YY      -0.121600
     20 C20          7.9230    -1.3290     0.0260 c          1 2YY       0.922200
     21 O21          8.3640    -1.6980    -1.0790 o          1 2YY      -0.822300
     22 C22          6.0530    -0.1250    -1.1960 ca         1 2YY      -0.106000
     23 C23          4.9090     0.6590    -1.2170 ca         1 2YY      -0.152000
     24 C24          4.3350     1.1170    -0.0330 ca         1 2YY      -0.136300
     25 C25          4.9370     0.7590     1.1710 ca         1 2YY      -0.152000
     26 C26          6.0810    -0.0250     1.1900 ca         1 2YY      -0.106000
     27 O27          8.4080    -1.5830     1.1450 o          1 2YY      -0.822300
     28 H1          -2.7320    -2.1200    -0.1510 ha         1 2YY       0.153000
     29 H2          -4.4710     2.5710     0.1600 ha         1 2YY       0.158000
     30 H4          -8.7890     0.9020     0.0530 hn         1 2YY       0.426800
     31 H5          -9.1120    -0.7500    -0.1440 hn         1 2YY       0.426800
     32 H6          -0.2190    -0.6600    -0.1550 hn         1 2YY       0.314700
     33 H8           0.7490     2.8900     0.0680 hn         1 2YY       0.462800
     34 H9           1.8630     0.4340     0.8720 h1         1 2YY       0.046700
     35 H10          1.8460     0.4010    -0.8910 h1         1 2YY       0.046700
     36 H11          3.0590     2.5670    -0.9550 hc         1 2YY       0.042700
     37 H12          3.0660     2.6220     0.8040 hc         1 2YY       0.042700
     38 H13          6.4860    -0.4630    -2.1280 ha         1 2YY       0.148000
     39 H14          4.4590     0.9250    -2.1670 ha         1 2YY       0.103000
     40 H15          4.5090     1.1040     2.1060 ha         1 2YY       0.103000
     41 H16          6.5350    -0.2830     2.1370 ha         1 2YY       0.148000
     42 H3          -7.4280    -2.2880     0.0010 hn         1 2YY       0.317500
@<TRIPOS>BOND
     1     1     2 ar  
     2     1     6 ar  
     3     1     7 1   
     4     2     3 ar  
     5     2    28 1   
     6     3     4 ar  
     7     3    12 1   
     8     4     5 ar  
     9     4    13 1   
    10     5     6 ar  
    11     5    29 1   
    12     6     8 1   
    13     7    11 1   
    14     7    18 2   
    15     8     9 2   
    16     9    10 1   
    17     9    11 1   
    18    10    30 1   
    19    10    31 1   
    20    11    42 1   
    21    12    14 1   
    22    12    32 1   
    23    13    14 2   
    24    14    15 1   
    25    15    16 1   
    26    15    33 1   
    27    16    17 1   
    28    16    34 1   
    29    16    35 1   
    30    17    24 1   
    31    17    36 1   
    32    17    37 1   
    33    19    20 1   
    34    19    22 ar  
    35    19    26 ar  
    36    20    21 1   
    37    20    27 1   
    38    22    23 ar  
    39    22    38 1   
    40    23    24 ar  
    41    23    39 1   
    42    24    25 ar  
    43    25    26 ar  
    44    25    40 1   
    45    26    41 1   
@<TRIPOS>SUBSTRUCTURE
     1 2YY         1 TEMP              0 ****  ****    0 ROOT
