@<TRIPOS>MOLECULE
2YZ
   35    36     1     0     0
SMALL
No Charge or Current Charge


@<TRIPOS>ATOM
      1 O1          -2.6150    -0.6130     0.1220 os         1 2YZ      -0.268100
      2 C2          -4.0250    -0.7740     0.4140 c3         1 2YZ      -0.003400
      3 C3          -4.4460    -2.2570     0.6260 c          1 2YZ       0.730000
      4 O4          -3.6000    -3.1420     0.5710 o          1 2YZ      -0.704500
      5 O6          -5.6290    -2.4800     0.8460 o          1 2YZ      -0.704500
      6 C9          -2.0290     0.6230    -0.0870 ca         1 2YZ       0.241100
      7 C10         -0.6390     0.7050    -0.3590 ca         1 2YZ      -0.230600
      8 C11          0.2130    -0.5390    -0.4830 c          1 2YZ       0.638700
      9 N12          1.5610    -0.3590    -0.2710 ns         1 2YZ      -0.512900
     10 C14          2.5630    -1.4150    -0.3780 c3         1 2YZ       0.143300
     11 C15          3.9560    -0.8740    -0.0960 ca         1 2YZ      -0.099300
     12 C16          4.7330    -0.3370    -1.1410 ca         1 2YZ      -0.099500
     13 C17          6.0190     0.1690    -0.8800 ca         1 2YZ      -0.117500
     14 C19          6.5330     0.1430     0.4280 ca         1 2YZ      -0.118000
     15 C20          5.7610    -0.3900     1.4740 ca         1 2YZ      -0.117500
     16 C21          4.4760    -0.8960     1.2130 ca         1 2YZ      -0.099500
     17 O28         -0.2250    -1.6350    -0.8020 o          1 2YZ      -0.567100
     18 C29         -0.0490     1.9830    -0.5270 ca         1 2YZ      -0.034000
     19 C31         -0.8250     3.1470    -0.4300 ca         1 2YZ      -0.240000
     20 C33         -2.1920     3.0540    -0.1660 ca         1 2YZ       0.220000
     21 F34         -2.9360     4.1770    -0.0740 f          1 2YZ      -0.193000
     22 C35         -2.7960     1.8060     0.0060 ca         1 2YZ      -0.273000
     23 H1          -4.2860    -0.2270     1.3290 h1         1 2YZ       0.022700
     24 H2          -4.6290    -0.3740    -0.4100 h1         1 2YZ       0.022700
     25 H4           1.8640     0.5660     0.0020 hn         1 2YZ       0.311500
     26 H5           2.3210    -2.2140     0.3370 h1         1 2YZ       0.067700
     27 H6           2.5280    -1.8440    -1.3880 h1         1 2YZ       0.067700
     28 H7           4.3410    -0.3100    -2.1550 ha         1 2YZ       0.118000
     29 H8           6.6150     0.5830    -1.6900 ha         1 2YZ       0.106000
     30 H9           7.5280     0.5340     0.6290 ha         1 2YZ       0.103000
     31 H10          6.1580    -0.4090     2.4870 ha         1 2YZ       0.106000
     32 H11          3.8830    -1.3040     2.0300 ha         1 2YZ       0.118000
     33 H12          1.0090     2.0910    -0.7570 ha         1 2YZ       0.105000
     34 H13         -0.3650     4.1220    -0.5660 ha         1 2YZ       0.119000
     35 H14         -3.8590     1.7800     0.2170 ha         1 2YZ       0.144000
@<TRIPOS>BOND
     1     1     2 1   
     2     1     6 1   
     3     2     3 1   
     4     2    23 1   
     5     2    24 1   
     6     3     4 1   
     7     3     5 1   
     8     6     7 ar  
     9     6    22 ar  
    10     7     8 1   
    11     7    18 ar  
    12     8     9 1   
    13     8    17 2   
    14     9    10 1   
    15     9    25 1   
    16    10    11 1   
    17    10    26 1   
    18    10    27 1   
    19    11    12 ar  
    20    11    16 ar  
    21    12    13 ar  
    22    12    28 1   
    23    13    14 ar  
    24    13    29 1   
    25    14    15 ar  
    26    14    30 1   
    27    15    16 ar  
    28    15    31 1   
    29    16    32 1   
    30    18    19 ar  
    31    18    33 1   
    32    19    20 ar  
    33    19    34 1   
    34    20    21 1   
    35    20    22 ar  
    36    22    35 1   
@<TRIPOS>SUBSTRUCTURE
     1 2YZ         1 TEMP              0 ****  ****    0 ROOT
