@<TRIPOS>MOLECULE
2YZ
   35    36     1     0     0
SMALL
bcc


@<TRIPOS>ATOM
      1 O1          -2.3660    -0.5820    -0.0640 os         1 2YZ      -0.244900
      2 C2          -3.7630    -0.7600     0.1000 c3         1 2YZ      -0.026600
      3 C3          -4.1070    -2.2470     0.2840 c          1 2YZ       0.940600
      4 O4          -3.1830    -3.0700     0.3020 o          1 2YZ      -0.809800
      5 O6          -5.3310    -2.4560     0.4010 o          1 2YZ      -0.809800
      6 C9          -1.8850     0.6520    -0.2150 ca         1 2YZ       0.241100
      7 C10         -0.4910     0.7730    -0.3430 ca         1 2YZ      -0.230600
      8 C11          0.3760    -0.4430    -0.4240 c          1 2YZ       0.705700
      9 N12          1.3270    -0.5000     0.5260 ns         1 2YZ      -0.579900
     10 C14          2.3710    -1.4980     0.5760 c3         1 2YZ       0.143300
     11 C15          3.7380    -0.9090     0.3290 ca         1 2YZ      -0.099300
     12 C16          3.9850    -0.1490    -0.8140 ca         1 2YZ      -0.117500
     13 C17          5.2420     0.3850    -1.0480 ca         1 2YZ      -0.135500
     14 C19          6.2740     0.1670    -0.1410 ca         1 2YZ      -0.136000
     15 C20          6.0370    -0.5890     0.9980 ca         1 2YZ      -0.135500
     16 C21          4.7740    -1.1210     1.2300 ca         1 2YZ      -0.117500
     17 O28          0.2410    -1.2760    -1.3060 o          1 2YZ      -0.567100
     18 C29          0.0790     2.0310    -0.4630 ca         1 2YZ      -0.052000
     19 C31         -0.6940     3.1850    -0.4830 ca         1 2YZ      -0.258000
     20 C33         -2.0580     3.0310    -0.3620 ca         1 2YZ       0.184900
     21 F34         -2.8370     4.1220    -0.3750 f          1 2YZ      -0.157900
     22 C35         -2.6740     1.8010    -0.2220 ca         1 2YZ      -0.291000
     23 H1          -4.1180    -0.2010     0.9750 h1         1 2YZ       0.022700
     24 H2          -4.3020    -0.3720    -0.7730 h1         1 2YZ       0.022700
     25 H4           1.3350     0.2110     1.2400 hn         1 2YZ       0.311500
     26 H5           2.3520    -1.9940     1.5480 h1         1 2YZ       0.067700
     27 H6           2.1440    -2.2560    -0.1720 h1         1 2YZ       0.067700
     28 H7           3.1900     0.0240    -1.5310 ha         1 2YZ       0.136000
     29 H8           5.4210     0.9710    -1.9410 ha         1 2YZ       0.124000
     30 H9           7.2550     0.5860    -0.3230 ha         1 2YZ       0.121000
     31 H10          6.8340    -0.7620     1.7100 ha         1 2YZ       0.124000
     32 H11          4.5940    -1.7070     2.1240 ha         1 2YZ       0.136000
     33 H12          1.1540     2.1230    -0.5620 ha         1 2YZ       0.123000
     34 H13         -0.2460     4.1630    -0.5920 ha         1 2YZ       0.137000
     35 H14         -3.7490     1.7600    -0.1180 ha         1 2YZ       0.162000
@<TRIPOS>BOND
     1     1     2 1   
     2     1     6 1   
     3     2     3 1   
     4     2    23 1   
     5     2    24 1   
     6     3     4 1   
     7     3     5 1   
     8     6     7 ar  
     9     6    22 ar  
    10     7     8 1   
    11     7    18 ar  
    12     8     9 1   
    13     8    17 2   
    14     9    10 1   
    15     9    25 1   
    16    10    11 1   
    17    10    26 1   
    18    10    27 1   
    19    11    12 ar  
    20    11    16 ar  
    21    12    13 ar  
    22    12    28 1   
    23    13    14 ar  
    24    13    29 1   
    25    14    15 ar  
    26    14    30 1   
    27    15    16 ar  
    28    15    31 1   
    29    16    32 1   
    30    18    19 ar  
    31    18    33 1   
    32    19    20 ar  
    33    19    34 1   
    34    20    21 1   
    35    20    22 ar  
    36    22    35 1   
@<TRIPOS>SUBSTRUCTURE
     1 2YZ         1 TEMP              0 ****  ****    0 ROOT
