@<TRIPOS>MOLECULE
2Z0
   78    79     1     0     0
SMALL
abcg2


@<TRIPOS>ATOM
      1 C1           3.8920     0.7010     0.9000 ca         1 2Z0       0.029000
      2 C2           3.5540     0.3870    -0.3860 ca         1 2Z0      -0.296500
      3 C3           2.3000     0.7380    -0.9190 ca         1 2Z0      -0.017000
      4 C4           1.3920     1.3790    -0.1220 ca         1 2Z0      -0.137000
      5 C4A          1.6830     1.6860     1.2270 ca         1 2Z0       0.008000
      6 C5           0.7190     2.2730     2.1040 ca         1 2Z0       0.217000
      7 C6           1.0600     2.4850     3.4190 ca         1 2Z0      -0.131000
      8 C7           2.3380     2.1560     3.9120 ca         1 2Z0      -0.115000
      9 C8           3.2810     1.6100     3.0920 ca         1 2Z0      -0.068000
     10 C8A          2.9640     1.3510     1.7380 ca         1 2Z0      -0.049000
     11 N           -0.5630     2.5830     1.5930 nh         1 2Z0      -0.769400
     12 CM1         -1.6290     2.6160     2.5780 c3         1 2Z0       0.160600
     13 CM2         -0.5760     3.7970     0.7800 c3         1 2Z0       0.160600
     14 S            4.6580    -0.6340    -1.3210 sy         1 2Z0       1.136600
     15 O1S          4.2410    -0.5870    -2.7130 o          1 2Z0      -0.531500
     16 O2S          6.0220    -0.2970    -0.9520 o          1 2Z0      -0.531500
     17 N1           4.4240    -2.1820    -0.8010 n7         1 2Z0      -0.819300
     18 CA           3.1460    -2.8450    -1.0130 c3         1 2Z0       0.127500
     19 C            2.0940    -2.3490    -0.0180 c          1 2Z0       0.566100
     20 O            2.3660    -2.1610     1.1570 o          1 2Z0      -0.616100
     21 CB           3.3190    -4.3580    -0.8650 c3         1 2Z0      -0.039400
     22 CG           4.2830    -4.9460    -1.8810 c3         1 2Z0      -0.210400
     23 CD           4.3940    -6.4810    -1.8590 c          1 2Z0       0.719000
     24 OE1          3.7870    -7.0950    -0.9610 o          1 2Z0      -0.734000
     25 OE2          5.1040    -6.9850    -2.7540 o          1 2Z0      -0.734000
     26 N2           0.8760    -2.1580    -0.5390 ns         1 2Z0      -0.498900
     27 CA1         -0.2150    -1.5820     0.2000 c3         1 2Z0       0.035000
     28 C9          -1.2300    -1.0350    -0.7840 c          1 2Z0       0.579100
     29 O1          -1.4240    -1.5760    -1.8610 o          1 2Z0      -0.594100
     30 O2          -1.1820     1.6880    -2.5270 o          1 2Z0      -0.459100
     31 N3          -1.9300     0.0420    -0.3890 ns         1 2Z0      -0.505900
     32 CA2         -2.9140     0.5940    -1.2860 c3         1 2Z0       0.011700
     33 CC          -2.2530     1.1470    -2.5460 c          1 2Z0       0.553100
     34 CB1         -3.7170     1.7070    -0.6160 c3         1 2Z0      -0.083400
     35 CG1         -4.6450     1.1850     0.4740 c3         1 2Z0      -0.093400
     36 CD1         -5.4640     2.3180     1.0670 c3         1 2Z0       0.056600
     37 NE          -6.3650     1.8080     2.0830 nu         1 2Z0      -0.889000
     38 CZ          -7.2860     2.5390     2.6990 cz         1 2Z0       0.935600
     39 NH2         -8.0400     1.9900     3.6420 nv         1 2Z0      -0.612300
     40 NH1         -7.4540     3.8140     2.3790 nv         1 2Z0      -0.612300
     41 CE          -3.0750     0.9660    -3.7950 c3         1 2Z0      -0.001400
     42 CL1         -2.3940     1.8270    -5.1860 cl         1 2Z0      -0.209000
     43 H1           4.8570     0.4290     1.3090 ha         1 2Z0       0.138000
     44 H3           2.0450     0.4940    -1.9410 ha         1 2Z0       0.146000
     45 H4           0.4240     1.6220    -0.5350 ha         1 2Z0       0.121000
     46 H6           0.3460     2.9210     4.1040 ha         1 2Z0       0.101000
     47 H7           2.5630     2.3470     4.9530 ha         1 2Z0       0.116000
     48 H8           4.2630     1.3520     3.4670 ha         1 2Z0       0.128000
     49 HM11        -1.5790     3.4770     3.2550 h1         1 2Z0       0.030533
     50 HM12        -2.5860     2.6780     2.0580 h1         1 2Z0       0.030533
     51 HM13        -1.6290     1.7040     3.1720 h1         1 2Z0       0.030533
     52 HM21         0.2020     3.7740     0.0210 h1         1 2Z0       0.030533
     53 HM22        -1.5350     3.8860     0.2690 h1         1 2Z0       0.030533
     54 HM23        -0.4340     4.6980     1.3890 h1         1 2Z0       0.030533
     55 H            4.8180    -2.3390     0.1220 hn         1 2Z0       0.496000
     56 HA           2.8280    -2.6340    -2.0370 h1         1 2Z0       0.087700
     57 HB2          3.6430    -4.5840     0.1530 hc         1 2Z0       0.055700
     58 HB3          2.3330    -4.8140    -0.9820 hc         1 2Z0       0.055700
     59 HG2          3.9950    -4.6290    -2.8890 hc         1 2Z0       0.030700
     60 HG3          5.2850    -4.5330    -1.7260 hc         1 2Z0       0.030700
     61 H2           0.7140    -2.3660    -1.5130 hn         1 2Z0       0.347500
     62 HA2         -0.7250    -2.3230     0.8270 h1         1 2Z0       0.071200
     63 HA3          0.1580    -0.8040     0.8680 h1         1 2Z0       0.071200
     64 H5          -1.5770     0.6210     0.3650 hn         1 2Z0       0.345500
     65 HA1         -3.6100    -0.1990    -1.5740 h1         1 2Z0       0.081700
     66 HB21        -3.0320     2.4610    -0.2180 hc         1 2Z0       0.060700
     67 HB31        -4.3140     2.2190    -1.3750 hc         1 2Z0       0.060700
     68 HG21        -5.3160     0.4370     0.0470 hc         1 2Z0       0.068700
     69 HG31        -4.0720     0.6890     1.2620 hc         1 2Z0       0.068700
     70 HD2         -4.8050     3.0790     1.4980 h1         1 2Z0       0.064700
     71 HD3         -6.0400     2.7970     0.2710 h1         1 2Z0       0.064700
     72 HE          -6.2270     0.8630     2.4070 hn         1 2Z0       0.376000
     73 HH21        -8.7580     2.5180     4.1080 hn         1 2Z0       0.379250
     74 HH11        -6.9020     4.2670     1.6710 hn         1 2Z0       0.379250
     75 HH12        -8.1750     4.3650     2.8120 hn         1 2Z0       0.379250
     76 HH22        -7.9550     1.0170     3.8790 hn         1 2Z0       0.379250
     77 H11         -3.1150    -0.1010    -4.0250 h1         1 2Z0       0.086700
     78 H21         -4.1010     1.3010    -3.6380 h1         1 2Z0       0.086700
@<TRIPOS>BOND
     1     1     2 ar  
     2     1    10 ar  
     3     1    43 1   
     4     2     3 ar  
     5     2    14 1   
     6     3     4 ar  
     7     3    44 1   
     8     4     5 ar  
     9     4    45 1   
    10     5     6 ar  
    11     5    10 ar  
    12     6     7 ar  
    13     6    11 1   
    14     7     8 ar  
    15     7    46 1   
    16     8     9 ar  
    17     8    47 1   
    18     9    10 ar  
    19     9    48 1   
    20    11    12 1   
    21    11    13 1   
    22    12    49 1   
    23    12    50 1   
    24    12    51 1   
    25    13    52 1   
    26    13    53 1   
    27    13    54 1   
    28    14    15 2   
    29    14    16 2   
    30    14    17 1   
    31    17    18 1   
    32    17    55 1   
    33    18    19 1   
    34    18    21 1   
    35    18    56 1   
    36    19    20 2   
    37    19    26 1   
    38    21    22 1   
    39    21    57 1   
    40    21    58 1   
    41    22    23 1   
    42    22    59 1   
    43    22    60 1   
    44    23    24 1   
    45    23    25 1   
    46    26    27 1   
    47    26    61 1   
    48    27    28 1   
    49    27    62 1   
    50    27    63 1   
    51    28    29 2   
    52    28    31 1   
    53    30    33 2   
    54    31    32 1   
    55    31    64 1   
    56    32    33 1   
    57    32    34 1   
    58    32    65 1   
    59    33    41 1   
    60    34    35 1   
    61    34    66 1   
    62    34    67 1   
    63    35    36 1   
    64    35    68 1   
    65    35    69 1   
    66    36    37 1   
    67    36    70 1   
    68    36    71 1   
    69    37    38 2   
    70    37    72 1   
    71    38    39 1   
    72    38    40 1   
    73    39    73 1   
    74    39    76 1   
    75    40    74 1   
    76    40    75 1   
    77    41    42 1   
    78    41    77 1   
    79    41    78 1   
@<TRIPOS>SUBSTRUCTURE
     1 2Z0         1 TEMP              0 ****  ****    0 ROOT
