@<TRIPOS>MOLECULE
2Z0
   78    79     1     0     0
SMALL
No Charge or Current Charge


@<TRIPOS>ATOM
      1 C1           3.8670     0.5090     0.9100 ca         1 2Z0       0.029000
      2 C2           3.5250     0.2160    -0.4240 ca         1 2Z0      -0.296500
      3 C3           2.3340     0.7360    -0.9660 ca         1 2Z0      -0.017000
      4 C4           1.4710     1.5000    -0.1650 ca         1 2Z0      -0.137000
      5 C4A          1.7760     1.7600     1.1910 ca         1 2Z0       0.008000
      6 C5           0.8830     2.4800     2.0370 ca         1 2Z0       0.217000
      7 C6           1.2480     2.7050     3.3810 ca         1 2Z0      -0.131000
      8 C7           2.4670     2.2310     3.8880 ca         1 2Z0      -0.115000
      9 C8           3.3380     1.5100     3.0600 ca         1 2Z0      -0.068000
     10 C8A          2.9960     1.2660     1.7180 ca         1 2Z0      -0.049000
     11 N           -0.3720     2.9720     1.5870 nh         1 2Z0      -0.769400
     12 CM1         -1.5930     2.7380     2.3850 c3         1 2Z0       0.160600
     13 CM2         -0.4250     4.0820     0.6120 c3         1 2Z0       0.160600
     14 S            4.6040    -0.8180    -1.4190 sy         1 2Z0       1.136600
     15 O1S          4.0780    -0.9380    -2.7810 o          1 2Z0      -0.531500
     16 O2S          6.0020    -0.4640    -1.1650 o          1 2Z0      -0.531500
     17 N1           4.4170    -2.3240    -0.7090 n7         1 2Z0      -0.819300
     18 CA           3.1210    -3.0630    -0.8540 c3         1 2Z0       0.127500
     19 C            1.9640    -2.4630     0.0140 c          1 2Z0       0.566100
     20 O            2.0690    -2.2910     1.2220 o          1 2Z0      -0.616100
     21 CB           3.3350    -4.5560    -0.4860 c3         1 2Z0      -0.039400
     22 CG           4.2750    -5.3260    -1.4530 c3         1 2Z0      -0.210400
     23 CD           4.3380    -6.8080    -1.0550 c          1 2Z0       0.719000
     24 OE1          5.1810    -7.1520    -0.2410 o          1 2Z0      -0.734000
     25 OE2          3.5030    -7.5650    -1.5270 o          1 2Z0      -0.734000
     26 N2           0.8210    -2.1060    -0.6690 ns         1 2Z0      -0.498900
     27 CA1         -0.3150    -1.3710    -0.0690 c3         1 2Z0       0.035000
     28 C9          -1.2040    -0.7320    -1.1600 c          1 2Z0       0.579100
     29 O1          -1.2170    -1.1260    -2.3200 o          1 2Z0      -0.594100
     30 O2          -1.1870     2.3380    -2.6270 o          1 2Z0      -0.459100
     31 N3          -2.0030     0.3120    -0.7460 ns         1 2Z0      -0.505900
     32 CA2         -2.9750     1.0090    -1.6210 c3         1 2Z0       0.011700
     33 CC          -2.2580     1.7580    -2.7820 c          1 2Z0       0.553100
     34 CB1         -3.9050     1.9560    -0.8240 c3         1 2Z0      -0.083400
     35 CG1         -4.7040     1.2590     0.3040 c3         1 2Z0      -0.093400
     36 CD1         -5.6350     2.2270     1.0560 c3         1 2Z0       0.056600
     37 NE          -6.3570     1.5060     2.1200 nu         1 2Z0      -0.889000
     38 CZ          -7.2260     1.9720     2.9920 cz         1 2Z0       0.935600
     39 NH2         -7.7470     1.1610     3.8620 nv         1 2Z0      -0.612300
     40 NH1         -7.5610     3.2280     2.9860 nv         1 2Z0      -0.612300
     41 CE          -2.9750     1.7080    -4.1410 c3         1 2Z0      -0.001400
     42 Cl1         -2.2600     2.8040    -5.4150 cl         1 2Z0      -0.209000
     43 H1           4.7970     0.1320     1.3330 ha         1 2Z0       0.138000
     44 H3           2.0580     0.5350    -2.0010 ha         1 2Z0       0.146000
     45 H4           0.5480     1.8630    -0.6030 ha         1 2Z0       0.121000
     46 H6           0.5850     3.2600     4.0370 ha         1 2Z0       0.101000
     47 H7           2.7340     2.4160     4.9270 ha         1 2Z0       0.116000
     48 H8           4.2750     1.1360     3.4670 ha         1 2Z0       0.128000
     49 HM11        -1.6730     3.4770     3.1940 h1         1 2Z0       0.030533
     50 HM12        -2.4880     2.8170     1.7560 h1         1 2Z0       0.030533
     51 HM13        -1.5770     1.7320     2.8250 h1         1 2Z0       0.030533
     52 HM21         0.5770     4.3000     0.2180 h1         1 2Z0       0.030533
     53 HM22        -1.0740     3.8180    -0.2330 h1         1 2Z0       0.030533
     54 HM23        -0.8120     4.9930     1.0870 h1         1 2Z0       0.030533
     55 H            4.5500    -2.1080     0.2780 hn         1 2Z0       0.496000
     56 HA           2.7880    -3.0390    -1.9010 h1         1 2Z0       0.087700
     57 HB2          3.7230    -4.6290     0.5380 hc         1 2Z0       0.055700
     58 HB3          2.3580    -5.0550    -0.4830 hc         1 2Z0       0.055700
     59 HG2          3.8350    -5.2190    -2.4520 hc         1 2Z0       0.030700
     60 HG3          5.2650    -4.8660    -1.3550 hc         1 2Z0       0.030700
     61 H2           0.7980    -2.2810    -1.6690 hn         1 2Z0       0.347500
     62 HA2         -0.9350    -2.0600     0.5180 h1         1 2Z0       0.071200
     63 HA3          0.0560    -0.5850     0.5980 h1         1 2Z0       0.071200
     64 H5          -1.8960     0.6220     0.2150 hn         1 2Z0       0.345500
     65 HA1         -3.6040     0.2380    -2.0880 h1         1 2Z0       0.081700
     66 HB21        -3.3080     2.7720    -0.3970 hc         1 2Z0       0.060700
     67 HB31        -4.6150     2.4230    -1.5190 hc         1 2Z0       0.060700
     68 HG21        -5.3000     0.4450    -0.1270 hc         1 2Z0       0.068700
     69 HG31        -4.0110     0.8050     1.0230 hc         1 2Z0       0.068700
     70 HD2         -5.0350     3.0410     1.4870 h1         1 2Z0       0.064700
     71 HD3         -6.3470     2.6680     0.3430 h1         1 2Z0       0.064700
     72 HE          -6.1630     0.5130     2.1890 hn         1 2Z0       0.376000
     73 HH21        -8.4140     1.4730     4.5490 hn         1 2Z0       0.379250
     74 HH11        -7.1690     3.8600     2.3110 hn         1 2Z0       0.379250
     75 HH12        -8.2290     3.6100     3.6360 hn         1 2Z0       0.379250
     76 HH22        -7.4990     0.1860     3.8870 hn         1 2Z0       0.379250
     77 H11         -2.9380     0.6780    -4.5150 h1         1 2Z0       0.086700
     78 H21         -4.0230     1.9970    -3.9970 h1         1 2Z0       0.086700
@<TRIPOS>BOND
     1     1     2 ar  
     2     1    10 ar  
     3     1    43 1   
     4     2     3 ar  
     5     2    14 1   
     6     3     4 ar  
     7     3    44 1   
     8     4     5 ar  
     9     4    45 1   
    10     5     6 ar  
    11     5    10 ar  
    12     6     7 ar  
    13     6    11 1   
    14     7     8 ar  
    15     7    46 1   
    16     8     9 ar  
    17     8    47 1   
    18     9    10 ar  
    19     9    48 1   
    20    11    12 1   
    21    11    13 1   
    22    12    49 1   
    23    12    50 1   
    24    12    51 1   
    25    13    52 1   
    26    13    53 1   
    27    13    54 1   
    28    14    15 2   
    29    14    16 2   
    30    14    17 1   
    31    17    18 1   
    32    17    55 1   
    33    18    19 1   
    34    18    21 1   
    35    18    56 1   
    36    19    20 2   
    37    19    26 1   
    38    21    22 1   
    39    21    57 1   
    40    21    58 1   
    41    22    23 1   
    42    22    59 1   
    43    22    60 1   
    44    23    24 1   
    45    23    25 1   
    46    26    27 1   
    47    26    61 1   
    48    27    28 1   
    49    27    62 1   
    50    27    63 1   
    51    28    29 2   
    52    28    31 1   
    53    30    33 2   
    54    31    32 1   
    55    31    64 1   
    56    32    33 1   
    57    32    34 1   
    58    32    65 1   
    59    33    41 1   
    60    34    35 1   
    61    34    66 1   
    62    34    67 1   
    63    35    36 1   
    64    35    68 1   
    65    35    69 1   
    66    36    37 1   
    67    36    70 1   
    68    36    71 1   
    69    37    38 2   
    70    37    72 1   
    71    38    39 1   
    72    38    40 1   
    73    39    73 1   
    74    39    76 1   
    75    40    74 1   
    76    40    75 1   
    77    41    42 1   
    78    41    77 1   
    79    41    78 1   
@<TRIPOS>SUBSTRUCTURE
     1 2Z0         1 TEMP              0 ****  ****    0 ROOT
