@<TRIPOS>MOLECULE
2Z3
   95    97     1     0     0
SMALL
No Charge or Current Charge


@<TRIPOS>ATOM
      1 O1           9.2680    -0.4190     1.2690 os         1 2Z3      -0.443000
      2 C2           9.2320     0.9730     0.9100 c6         1 2Z3       0.143100
      3 C3           8.0210     1.2690    -0.0090 c6         1 2Z3       0.057000
      4 N4           6.7230     0.6480     0.4130 n          1 2Z3      -0.403800
      5 C5           6.8170    -0.6320     1.1940 c6         1 2Z3       0.057000
      6 C6           8.1120    -0.8100     2.0290 c6         1 2Z3       0.143100
      7 C            5.5320     1.0410    -0.2310 c          1 2Z3       0.659100
      8 O            5.4900     1.9910    -0.9980 o          1 2Z3      -0.634100
      9 N            4.4170     0.2960     0.0650 ns         1 2Z3      -0.508900
     10 CA           3.0950     0.4390    -0.5890 c3         1 2Z3       0.043700
     11 C1           1.9500     0.3020     0.4540 c          1 2Z3       0.597100
     12 O2           2.1240    -0.1340     1.5860 o          1 2Z3      -0.607100
     13 CB           2.9360    -0.5910    -1.7410 c3         1 2Z3      -0.057100
     14 CG           4.0690    -0.5420    -2.7600 ca         1 2Z3      -0.084300
     15 CD1          5.1570    -1.4330    -2.6590 ca         1 2Z3      -0.099000
     16 CD2          4.0440     0.4030    -3.8040 ca         1 2Z3      -0.099000
     17 CE1          6.2090    -1.3770    -3.5900 ca         1 2Z3      -0.106500
     18 CE2          5.0950     0.4570    -4.7360 ca         1 2Z3      -0.106500
     19 CZ           6.1780    -0.4320    -4.6290 ca         1 2Z3      -0.104000
     20 N1           0.7060     0.7050     0.0120 ns         1 2Z3      -0.493900
     21 CA1         -0.5390     0.6660     0.8130 c3         1 2Z3       0.044700
     22 C4          -1.7240     0.2060    -0.0820 c          1 2Z3       0.579100
     23 O3          -1.6690     0.1570    -1.3040 o          1 2Z3      -0.627100
     24 CB1         -0.8300     2.0400     1.4790 c3         1 2Z3      -0.084400
     25 CG1          0.2600     2.5220     2.4650 c3         1 2Z3      -0.074400
     26 CD          -0.1050     3.8480     3.1670 c3         1 2Z3      -0.075400
     27 CE           0.9830     4.3320     4.1450 c3         1 2Z3      -0.089100
     28 N2          -2.8800    -0.1420     0.5830 ns         1 2Z3      -0.484900
     29 CA2         -4.0650    -0.7830    -0.0390 c3         1 2Z3       0.052700
     30 CB2         -4.8040    -1.6210     1.0530 c3         1 2Z3      -0.092400
     31 CG2         -4.1040    -2.9270     1.5750 c6         1 2Z3      -0.060700
     32 CD11        -5.0930    -3.7180     2.4830 c6         1 2Z3      -0.070400
     33 CD21        -2.7580    -2.6980     2.3310 c6         1 2Z3      -0.070400
     34 CE11        -4.4820    -5.0410     3.0040 c6         1 2Z3      -0.072900
     35 CE21        -2.1580    -4.0210     2.8700 c6         1 2Z3      -0.072900
     36 CZ1         -3.1630    -4.7800     3.7650 c6         1 2Z3      -0.075400
     37 CH          -4.9540     0.2750    -0.8270 c3         1 2Z3       0.379000
     38 OH1         -5.2210     1.3780     0.0240 oh         1 2Z3      -0.661500
     39 OH2         -4.1650     0.8180    -1.8710 oh         1 2Z3      -0.661500
     40 CM          -6.2960    -0.2660    -1.4590 c3         1 2Z3       0.052000
     41 F1          -6.0630    -1.4840    -2.0160 f          1 2Z3      -0.105000
     42 F2          -7.2280    -0.4620    -0.4920 f          1 2Z3      -0.105000
     43 C7          -6.9080     0.6940    -2.5220 c          1 2Z3       0.588100
     44 O4          -7.4020     0.2960    -3.5720 o          1 2Z3      -0.560100
     45 N3          -6.9050     2.0380    -2.2070 ns         1 2Z3      -0.483900
     46 C8          -7.4380     3.1000    -3.0600 c3         1 2Z3       0.095300
     47 H21          9.1640     1.5790     1.8250 h1         1 2Z3       0.054450
     48 H22         10.1660     1.2400     0.3960 h1         1 2Z3       0.054450
     49 H31          7.8980     2.3590    -0.0770 h1         1 2Z3       0.055200
     50 H32          8.2570     0.9100    -1.0210 h1         1 2Z3       0.055200
     51 H51          5.9650    -0.7080     1.8850 h1         1 2Z3       0.055200
     52 H52          6.7400    -1.4720     0.4890 h1         1 2Z3       0.055200
     53 H61          8.2170    -1.8600     2.3370 h1         1 2Z3       0.054450
     54 H62          8.0560    -0.1950     2.9390 h1         1 2Z3       0.054450
     55 H            4.5290    -0.4340     0.7550 hn         1 2Z3       0.325500
     56 HA           3.0140     1.4500    -1.0100 h1         1 2Z3       0.101700
     57 HB2          2.8690    -1.5970    -1.3070 hc         1 2Z3       0.059700
     58 HB3          1.9780    -0.4210    -2.2480 hc         1 2Z3       0.059700
     59 HD1          5.1910    -2.1650    -1.8550 ha         1 2Z3       0.107500
     60 HD2          3.2130     1.0990    -3.8910 ha         1 2Z3       0.107500
     61 HE1          7.0470    -2.0650    -3.5040 ha         1 2Z3       0.113000
     62 HE2          5.0720     1.1900    -5.5390 ha         1 2Z3       0.113000
     63 HZ           6.9920    -0.3880    -5.3490 ha         1 2Z3       0.113000
     64 H1           0.6390     1.0150    -0.9520 hn         1 2Z3       0.332500
     65 HA1         -0.4330    -0.0920     1.6000 h1         1 2Z3       0.086700
     66 HB21        -0.9650     2.7960     0.6950 hc         1 2Z3       0.060200
     67 HB31        -1.7820     1.9800     2.0210 hc         1 2Z3       0.060200
     68 HG2          0.4290     1.7470     3.2240 hc         1 2Z3       0.046200
     69 HG3          1.2070     2.6580     1.9280 hc         1 2Z3       0.046200
     70 HD21        -0.2760     4.6250     2.4110 hc         1 2Z3       0.038700
     71 HD3         -1.0470     3.7220     3.7160 hc         1 2Z3       0.038700
     72 HE11         1.9300     4.5010     3.6190 hc         1 2Z3       0.034367
     73 HE21         0.6800     5.2730     4.6190 hc         1 2Z3       0.034367
     74 HE3          1.1520     3.5900     4.9350 hc         1 2Z3       0.034367
     75 H2          -2.8380    -0.1090     1.5970 hn         1 2Z3       0.328500
     76 HA2         -3.7020    -1.5040    -0.7860 h1         1 2Z3       0.099700
     77 HB22        -5.0570    -0.9660     1.8970 hc         1 2Z3       0.054200
     78 HB32        -5.7600    -1.9500     0.6420 hc         1 2Z3       0.054200
     79 HG          -3.8960    -3.5400     0.6850 hc         1 2Z3       0.057700
     80 HD12        -5.3920    -3.0950     3.3370 hc         1 2Z3       0.038700
     81 HD13        -6.0140    -3.9440     1.9290 hc         1 2Z3       0.038700
     82 HD23        -2.0110    -2.2540     1.6630 hc         1 2Z3       0.038700
     83 HD22        -2.9080    -1.9940     3.1620 hc         1 2Z3       0.038700
     84 HE12        -5.1980    -5.5480     3.6640 hc         1 2Z3       0.041200
     85 HE13        -4.2970    -5.7220     2.1610 hc         1 2Z3       0.041200
     86 HE23        -1.8600    -4.6600     2.0270 hc         1 2Z3       0.041200
     87 HE22        -1.2410    -3.8090     3.4370 hc         1 2Z3       0.041200
     88 HZ2         -3.3660    -4.1970     4.6740 hc         1 2Z3       0.040200
     89 HZ3         -2.7260    -5.7320     4.0940 hc         1 2Z3       0.040200
     90 HH1         -4.4670     1.4190     0.6460 ho         1 2Z3       0.489000
     91 HH2         -3.2240     0.5710    -1.6690 ho         1 2Z3       0.489000
     92 HN1         -6.4320     2.2830    -1.3400 hn         1 2Z3       0.332500
     93 H11         -6.9070     3.1040    -4.0200 h1         1 2Z3       0.043367
     94 H23         -8.5090     2.9320    -3.2340 h1         1 2Z3       0.043367
     95 H3          -7.3000     4.0700    -2.5650 h1         1 2Z3       0.043367
@<TRIPOS>BOND
     1     1     2 1   
     2     1     6 1   
     3     2     3 1   
     4     2    47 1   
     5     2    48 1   
     6     3     4 1   
     7     3    49 1   
     8     3    50 1   
     9     4     5 1   
    10     4     7 1   
    11     5     6 1   
    12     5    51 1   
    13     5    52 1   
    14     6    53 1   
    15     6    54 1   
    16     7     8 2   
    17     7     9 1   
    18     9    10 1   
    19     9    55 1   
    20    10    11 1   
    21    10    13 1   
    22    10    56 1   
    23    11    12 2   
    24    11    20 1   
    25    13    14 1   
    26    13    57 1   
    27    13    58 1   
    28    14    15 ar  
    29    14    16 ar  
    30    15    17 ar  
    31    15    59 1   
    32    16    18 ar  
    33    16    60 1   
    34    17    19 ar  
    35    17    61 1   
    36    18    19 ar  
    37    18    62 1   
    38    19    63 1   
    39    20    21 1   
    40    20    64 1   
    41    21    22 1   
    42    21    24 1   
    43    21    65 1   
    44    22    23 2   
    45    22    28 1   
    46    24    25 1   
    47    24    66 1   
    48    24    67 1   
    49    25    26 1   
    50    25    68 1   
    51    25    69 1   
    52    26    27 1   
    53    26    70 1   
    54    26    71 1   
    55    27    72 1   
    56    27    73 1   
    57    27    74 1   
    58    28    29 1   
    59    28    75 1   
    60    29    30 1   
    61    29    37 1   
    62    29    76 1   
    63    30    31 1   
    64    30    77 1   
    65    30    78 1   
    66    31    32 1   
    67    31    33 1   
    68    31    79 1   
    69    32    34 1   
    70    32    80 1   
    71    32    81 1   
    72    33    35 1   
    73    33    82 1   
    74    33    83 1   
    75    34    36 1   
    76    34    84 1   
    77    34    85 1   
    78    35    36 1   
    79    35    86 1   
    80    35    87 1   
    81    36    88 1   
    82    36    89 1   
    83    37    38 1   
    84    37    39 1   
    85    37    40 1   
    86    38    90 1   
    87    39    91 1   
    88    40    41 1   
    89    40    42 1   
    90    40    43 1   
    91    43    44 2   
    92    43    45 1   
    93    45    46 1   
    94    45    92 1   
    95    46    93 1   
    96    46    94 1   
    97    46    95 1   
@<TRIPOS>SUBSTRUCTURE
     1 2Z3         1 TEMP              0 ****  ****    0 ROOT
