@<TRIPOS>MOLECULE
2Z3
   95    97     1     0     0
SMALL
bcc


@<TRIPOS>ATOM
      1 O1           8.0570    -2.1420     1.7950 os         1 2Z3      -0.396600
      2 C2           8.3190    -0.8900     1.2020 c6         1 2Z3       0.119900
      3 C3           7.2610    -0.5170     0.1830 c6         1 2Z3       0.057000
      4 N4           5.9390    -0.5550     0.7910 n          1 2Z3      -0.470800
      5 C5           5.6720    -1.8010     1.4900 c6         1 2Z3       0.057000
      6 C6           6.8100    -2.1220     2.4440 c6         1 2Z3       0.119900
      7 C            4.9580     0.1920     0.1870 c          1 2Z3       0.793100
      8 O            5.2230     1.0480    -0.6460 o          1 2Z3      -0.634100
      9 N            3.6790    -0.0310     0.6010 ns         1 2Z3      -0.575900
     10 CA           2.5550     0.4850    -0.1250 c3         1 2Z3       0.043700
     11 C1           1.4360     0.8480     0.8420 c          1 2Z3       0.664100
     12 O2           1.2930     0.2630     1.9020 o          1 2Z3      -0.607100
     13 CB           1.9890    -0.5520    -1.1270 c3         1 2Z3      -0.057100
     14 CG           3.0510    -1.0490    -2.0620 ca         1 2Z3      -0.084300
     15 CD1          3.7470    -2.2230    -1.7890 ca         1 2Z3      -0.117000
     16 CD2          3.4010    -0.3120    -3.1890 ca         1 2Z3      -0.117000
     17 CE1          4.7780    -2.6470    -2.6170 ca         1 2Z3      -0.124500
     18 CE2          4.4250    -0.7350    -4.0240 ca         1 2Z3      -0.124500
     19 CZ           5.1200    -1.9030    -3.7370 ca         1 2Z3      -0.122000
     20 N1           0.6040     1.8000     0.3840 ns         1 2Z3      -0.560900
     21 CA1         -0.6810     2.1040     0.9680 c3         1 2Z3       0.044700
     22 C4          -1.7440     1.4010     0.1310 c          1 2Z3       0.646100
     23 O3          -1.8020     1.5880    -1.0850 o          1 2Z3      -0.627100
     24 CB1         -0.9470     3.6060     1.0120 c3         1 2Z3      -0.084400
     25 CG1          0.0720     4.3660     1.8520 c3         1 2Z3      -0.074400
     26 CD          -0.3420     5.8120     2.0960 c3         1 2Z3      -0.075400
     27 CE           0.6970     6.5970     2.8840 c3         1 2Z3      -0.089100
     28 N2          -2.5740     0.5820     0.7770 ns         1 2Z3      -0.551900
     29 CA2         -3.4750    -0.3480     0.1100 c3         1 2Z3       0.052700
     30 CB2         -3.6590    -1.5820     0.9990 c3         1 2Z3      -0.092400
     31 CG2         -2.5490    -2.6330     0.8820 c6         1 2Z3      -0.060700
     32 CD11        -2.8790    -3.8160     1.7950 c6         1 2Z3      -0.070400
     33 CD21        -1.1460    -2.1070     1.1870 c6         1 2Z3      -0.070400
     34 CE11        -1.8260    -4.9170     1.7220 c6         1 2Z3      -0.072900
     35 CE21        -0.0920    -3.2080     1.1290 c6         1 2Z3      -0.072900
     36 CZ1         -0.4380    -4.3750     2.0450 c6         1 2Z3      -0.075400
     37 CH          -4.7840     0.4030    -0.2580 c3         1 2Z3       0.332600
     38 OH1         -5.4030     0.9350     0.8740 oh         1 2Z3      -0.599300
     39 OH2         -4.5260     1.4700    -1.0960 oh         1 2Z3      -0.599300
     40 CM          -5.8110    -0.4680    -1.0350 c3         1 2Z3       0.294600
     41 F1          -5.1580    -1.3050    -1.8700 f          1 2Z3      -0.226300
     42 F2          -6.5430    -1.2520    -0.1900 f          1 2Z3      -0.226300
     43 C7          -6.7920     0.3740    -1.8800 c          1 2Z3       0.655100
     44 O4          -6.7640     0.3150    -3.0950 o          1 2Z3      -0.560100
     45 N3          -7.6540     1.1060    -1.1760 ns         1 2Z3      -0.550900
     46 C8          -8.6210     1.9650    -1.8220 c3         1 2Z3       0.095300
     47 H21          8.3820    -0.1070     1.9710 h1         1 2Z3       0.054450
     48 H22          9.2900    -0.9560     0.7100 h1         1 2Z3       0.054450
     49 H31          7.4710     0.4830    -0.1870 h1         1 2Z3       0.055200
     50 H32          7.3060    -1.2060    -0.6700 h1         1 2Z3       0.055200
     51 H51          4.7740    -1.7360     2.1030 h1         1 2Z3       0.055200
     52 H52          5.5330    -2.6230     0.7770 h1         1 2Z3       0.055200
     53 H61          6.6450    -3.1080     2.8800 h1         1 2Z3       0.054450
     54 H62          6.8120    -1.3860     3.2600 h1         1 2Z3       0.054450
     55 H            3.4740    -0.7370     1.2880 hn         1 2Z3       0.325500
     56 HA           2.8790     1.3700    -0.6740 h1         1 2Z3       0.101700
     57 HB2          1.5640    -1.3890    -0.5650 hc         1 2Z3       0.059700
     58 HB3          1.1690    -0.0950    -1.6870 hc         1 2Z3       0.059700
     59 HD1          3.4780    -2.8150    -0.9220 ha         1 2Z3       0.125500
     60 HD2          2.8700     0.6060    -3.4170 ha         1 2Z3       0.125500
     61 HE1          5.3080    -3.5630    -2.3890 ha         1 2Z3       0.131000
     62 HE2          4.6820    -0.1520    -4.8990 ha         1 2Z3       0.131000
     63 HZ           5.9200    -2.2340    -4.3870 ha         1 2Z3       0.131000
     64 H1           0.8070     2.2190    -0.5120 hn         1 2Z3       0.332500
     65 HA1         -0.6810     1.7160     1.9880 h1         1 2Z3       0.086700
     66 HB21        -0.9720     4.0050    -0.0050 hc         1 2Z3       0.060200
     67 HB31        -1.9490     3.7550     1.4260 hc         1 2Z3       0.060200
     68 HG2          0.2030     3.8620     2.8160 hc         1 2Z3       0.046200
     69 HG3          1.0480     4.3440     1.3610 hc         1 2Z3       0.046200
     70 HD21        -0.5260     6.3060     1.1370 hc         1 2Z3       0.038700
     71 HD3         -1.2970     5.8250     2.6310 hc         1 2Z3       0.038700
     72 HE11         1.6400     6.6630     2.3390 hc         1 2Z3       0.034367
     73 HE21         0.3600     7.6150     3.0850 hc         1 2Z3       0.034367
     74 HE3          0.9050     6.1220     3.8440 hc         1 2Z3       0.034367
     75 H2          -2.4890     0.5090     1.7780 hn         1 2Z3       0.328500
     76 HA2         -2.9930    -0.6580    -0.8220 h1         1 2Z3       0.099700
     77 HB22        -3.7590    -1.2680     2.0450 hc         1 2Z3       0.054200
     78 HB32        -4.5940    -2.0840     0.7560 hc         1 2Z3       0.054200
     79 HG          -2.5530    -2.9980    -0.1540 hc         1 2Z3       0.057700
     80 HD12        -2.9550    -3.4550     2.8270 hc         1 2Z3       0.038700
     81 HD13        -3.8620    -4.2180     1.5350 hc         1 2Z3       0.038700
     82 HD23        -0.8700    -1.3210     0.4820 hc         1 2Z3       0.038700
     83 HD22        -1.1370    -1.6500     2.1840 hc         1 2Z3       0.038700
     84 HE12        -2.0880    -5.7290     2.4030 hc         1 2Z3       0.041200
     85 HE13        -1.8200    -5.3460     0.7130 hc         1 2Z3       0.041200
     86 HE23        -0.0080    -3.5730     0.0990 hc         1 2Z3       0.041200
     87 HE22         0.8840    -2.7900     1.3930 hc         1 2Z3       0.041200
     88 HZ2         -0.4120    -4.0380     3.0870 hc         1 2Z3       0.040200
     89 HZ3          0.3110    -5.1640     1.9540 hc         1 2Z3       0.040200
     90 HH1         -5.5720     0.2490     1.5310 ho         1 2Z3       0.450000
     91 HH2         -3.5790     1.5160    -1.3310 ho         1 2Z3       0.450000
     92 HN1         -7.5730     1.1510    -0.1730 hn         1 2Z3       0.332500
     93 H11         -8.1370     2.7140    -2.4500 h1         1 2Z3       0.043367
     94 H23         -9.3120     1.3920    -2.4390 h1         1 2Z3       0.043367
     95 H3          -9.1900     2.4770    -1.0520 h1         1 2Z3       0.043367
@<TRIPOS>BOND
     1     1     2 1   
     2     1     6 1   
     3     2     3 1   
     4     2    47 1   
     5     2    48 1   
     6     3     4 1   
     7     3    49 1   
     8     3    50 1   
     9     4     5 1   
    10     4     7 1   
    11     5     6 1   
    12     5    51 1   
    13     5    52 1   
    14     6    53 1   
    15     6    54 1   
    16     7     8 2   
    17     7     9 1   
    18     9    10 1   
    19     9    55 1   
    20    10    11 1   
    21    10    13 1   
    22    10    56 1   
    23    11    12 2   
    24    11    20 1   
    25    13    14 1   
    26    13    57 1   
    27    13    58 1   
    28    14    15 ar  
    29    14    16 ar  
    30    15    17 ar  
    31    15    59 1   
    32    16    18 ar  
    33    16    60 1   
    34    17    19 ar  
    35    17    61 1   
    36    18    19 ar  
    37    18    62 1   
    38    19    63 1   
    39    20    21 1   
    40    20    64 1   
    41    21    22 1   
    42    21    24 1   
    43    21    65 1   
    44    22    23 2   
    45    22    28 1   
    46    24    25 1   
    47    24    66 1   
    48    24    67 1   
    49    25    26 1   
    50    25    68 1   
    51    25    69 1   
    52    26    27 1   
    53    26    70 1   
    54    26    71 1   
    55    27    72 1   
    56    27    73 1   
    57    27    74 1   
    58    28    29 1   
    59    28    75 1   
    60    29    30 1   
    61    29    37 1   
    62    29    76 1   
    63    30    31 1   
    64    30    77 1   
    65    30    78 1   
    66    31    32 1   
    67    31    33 1   
    68    31    79 1   
    69    32    34 1   
    70    32    80 1   
    71    32    81 1   
    72    33    35 1   
    73    33    82 1   
    74    33    83 1   
    75    34    36 1   
    76    34    84 1   
    77    34    85 1   
    78    35    36 1   
    79    35    86 1   
    80    35    87 1   
    81    36    88 1   
    82    36    89 1   
    83    37    38 1   
    84    37    39 1   
    85    37    40 1   
    86    38    90 1   
    87    39    91 1   
    88    40    41 1   
    89    40    42 1   
    90    40    43 1   
    91    43    44 2   
    92    43    45 1   
    93    45    46 1   
    94    45    92 1   
    95    46    93 1   
    96    46    94 1   
    97    46    95 1   
@<TRIPOS>SUBSTRUCTURE
     1 2Z3         1 TEMP              0 ****  ****    0 ROOT
