@<TRIPOS>MOLECULE
2Z4
  119   122     1     0     0
SMALL
bcc


@<TRIPOS>ATOM
      1 C1          -7.1700    16.9770    22.1880 c          1 2Z4       0.757100
      2 O1          -7.4590    18.0750    21.7550 o          1 2Z4      -0.609000
      3 O2          -6.0430    16.3240    21.8800 os         1 2Z4      -0.432900
      4 C2          -5.1450    16.9540    20.9590 c3         1 2Z4       0.207700
      5 C3          -3.8580    16.1880    21.0130 ca         1 2Z4      -0.100300
      6 C4          -3.6600    15.0690    20.2100 ca         1 2Z4      -0.102500
      7 C5          -2.4780    14.3450    20.2880 ca         1 2Z4      -0.133500
      8 C6          -1.4820    14.7340    21.1750 ca         1 2Z4      -0.116000
      9 C7          -1.6710    15.8500    21.9800 ca         1 2Z4      -0.133500
     10 C8          -2.8540    16.5710    21.8980 ca         1 2Z4      -0.102500
     11 N           -7.9210    16.2390    23.0260 ns         1 2Z4      -0.552900
     12 CA          -9.1490    16.7120    23.6180 c3         1 2Z4       0.053700
     13 CB         -10.3950    15.9470    23.0920 c3         1 2Z4      -0.044000
     14 CG1        -11.6570    16.5830    23.6730 c3         1 2Z4      -0.091100
     15 CG2        -10.4320    16.0800    21.5680 c3         1 2Z4      -0.091100
     16 CG3        -10.3650    14.4630    23.4620 c3         1 2Z4      -0.091100
     17 C           -8.9660    16.6400    25.1390 c          1 2Z4       0.660100
     18 O           -8.4100    15.6800    25.6490 o          1 2Z4      -0.585100
     19 N1          -9.4290    17.6940    25.8310 ns         1 2Z4      -0.545900
     20 CA1         -9.1310    17.9330    27.2280 c3         1 2Z4       0.124700
     21 CB1         -7.9950    18.9690    27.3450 c3         1 2Z4      -0.054100
     22 CG11        -6.7270    18.4800    26.7090 ca         1 2Z4      -0.083300
     23 CD1         -5.8540    17.6610    27.4240 ca         1 2Z4      -0.118000
     24 CD2         -6.4150    18.7890    25.3880 ca         1 2Z4      -0.118000
     25 CE1         -4.7040    17.1580    26.8340 ca         1 2Z4      -0.124500
     26 CE2         -5.2630    18.2890    24.7940 ca         1 2Z4      -0.124500
     27 CZ1         -4.4050    17.4700    25.5140 ca         1 2Z4      -0.124000
     28 CM         -10.3480    18.3960    28.0360 c3         1 2Z4       0.141100
     29 OH         -10.9160    19.4830    27.3450 oh         1 2Z4      -0.602800
     30 N2         -12.1050    16.8630    27.1830 n7         1 2Z4      -0.784200
     31 CA2        -11.4280    17.3360    28.3610 c3         1 2Z4       0.078500
     32 CB2        -13.4250    16.3060    27.4400 c3         1 2Z4       0.215100
     33 CG21       -13.3620    14.9010    27.9750 ca         1 2Z4      -0.125300
     34 CD4        -12.9120    13.8570    27.1660 ca         1 2Z4      -0.068000
     35 CE3        -12.8120    12.5680    27.6470 ca         1 2Z4      -0.191000
     36 CD3        -13.7110    14.6040    29.2820 ca         1 2Z4      -0.068000
     37 CE4        -13.6140    13.3100    29.7900 ca         1 2Z4      -0.191000
     38 CZ2        -13.1570    12.2830    28.9730 ca         1 2Z4       0.139100
     39 OE2        -13.0190    10.9990    29.3620 os         1 2Z4      -0.315900
     40 CM2        -13.3080    10.6690    30.7030 c3         1 2Z4       0.126700
     41 C9         -10.8020    16.1890    29.1620 c          1 2Z4       0.667100
     42 O3         -10.2520    15.2360    28.6370 o          1 2Z4      -0.550100
     43 N3         -10.8730    16.3660    30.4930 ns         1 2Z4      -0.577900
     44 CA3        -10.3670    15.4310    31.4710 c3         1 2Z4       0.039700
     45 CC         -11.4820    15.2350    32.5010 c          1 2Z4       0.661100
     46 O4         -12.0320    16.2100    32.9950 o          1 2Z4      -0.619100
     47 CB3         -9.0790    15.9280    32.1570 c3         1 2Z4      -0.067700
     48 CG12        -8.5600    14.8870    33.1460 c3         1 2Z4      -0.090600
     49 CG22        -7.9990    16.2690    31.1370 c3         1 2Z4      -0.090600
     50 N4         -11.7910    13.9680    32.8000 ns         1 2Z4      -0.557900
     51 CB4        -12.8350    13.5820    33.7310 c3         1 2Z4       0.164300
     52 CG         -12.3550    12.6280    34.7870 ca         1 2Z4      -0.191300
     53 CD11       -11.5160    13.0500    35.8200 ca         1 2Z4       0.198100
     54 CE11       -11.0830    12.1620    36.8030 ca         1 2Z4      -0.320000
     55 CD21       -12.7440    11.2930    34.7790 ca         1 2Z4      -0.051000
     56 CE21       -12.3330    10.3930    35.7450 ca         1 2Z4      -0.203000
     57 CZ         -11.4930    10.8320    36.7690 ca         1 2Z4       0.192100
     58 OE         -11.1290     9.9140    37.6820 os         1 2Z4      -0.313900
     59 CM1        -10.2740    10.3050    38.7370 c3         1 2Z4       0.124700
     60 OH1        -11.1510    14.3450    35.8330 oh         1 2Z4      -0.482100
     61 H21         -5.5730    16.9340    19.9540 h1         1 2Z4       0.054200
     62 H22         -4.9820    17.9970    21.2380 h1         1 2Z4       0.054200
     63 H41         -4.4340    14.7660    19.5140 ha         1 2Z4       0.132000
     64 H51         -2.3330    13.4790    19.6550 ha         1 2Z4       0.131500
     65 H61         -0.5600    14.1710    21.2340 ha         1 2Z4       0.130000
     66 H71         -0.8970    16.1600    22.6690 ha         1 2Z4       0.131500
     67 H81         -2.9960    17.4450    22.5230 ha         1 2Z4       0.132000
     68 H           -7.5360    15.3760    23.3780 hn         1 2Z4       0.347500
     69 HA          -9.2700    17.7560    23.3190 h1         1 2Z4       0.078700
     70 HG11       -11.7240    16.4410    24.7520 hc         1 2Z4       0.040033
     71 HG12       -11.6990    17.6560    23.4690 hc         1 2Z4       0.040033
     72 HG13       -12.5420    16.1270    23.2270 hc         1 2Z4       0.040033
     73 HG21       -10.4370    17.1270    21.2560 hc         1 2Z4       0.040033
     74 HG22        -9.5820    15.5880    21.0950 hc         1 2Z4       0.040033
     75 HG23       -11.3380    15.6140    21.1780 hc         1 2Z4       0.040033
     76 HG31       -11.2200    13.9570    23.0090 hc         1 2Z4       0.040033
     77 HG32        -9.4650    13.9660    23.0960 hc         1 2Z4       0.040033
     78 HG33       -10.4260    14.3070    24.5390 hc         1 2Z4       0.040033
     79 HN1         -9.8080    18.4700    25.3100 hn         1 2Z4       0.315500
     80 HA1         -8.7770    16.9950    27.6530 h1         1 2Z4       0.110700
     81 HB11        -8.3100    19.9090    26.8850 hc         1 2Z4       0.052200
     82 HB12        -7.8220    19.1720    28.4050 hc         1 2Z4       0.052200
     83 HD1         -6.0820    17.4130    28.4550 ha         1 2Z4       0.127500
     84 HD2         -7.0770    19.4280    24.8160 ha         1 2Z4       0.127500
     85 HE1         -4.0380    16.5240    27.4060 ha         1 2Z4       0.129000
     86 HE2         -5.0300    18.5500    23.7690 ha         1 2Z4       0.129000
     87 HZ1         -3.5070    17.0800    25.0510 ha         1 2Z4       0.128000
     88 HM          -9.9550    18.7180    29.0100 h1         1 2Z4       0.037700
     89 HOH        -11.5530    19.9250    27.9160 ho         1 2Z4       0.407000
     90 HN2        -12.2040    17.6360    26.5380 hn         1 2Z4       0.374800
     91 HA2        -12.1350    17.8550    29.0360 h1         1 2Z4       0.013700
     92 HB21       -14.0090    16.9310    28.1330 h1         1 2Z4       0.033700
     93 HB22       -13.9630    16.3060    26.4890 h1         1 2Z4       0.033700
     94 HD4        -12.6290    14.0590    26.1390 ha         1 2Z4       0.132000
     95 HE3        -12.4610    11.7680    27.0060 ha         1 2Z4       0.137500
     96 HD3        -14.0620    15.3930    29.9360 ha         1 2Z4       0.132000
     97 HE4        -13.8980    13.1300    30.8180 ha         1 2Z4       0.137500
     98 HM21       -13.1220     9.6030    30.8080 h1         1 2Z4       0.036367
     99 HM22       -12.6640    11.2060    31.4060 h1         1 2Z4       0.036367
    100 HM23       -14.3520    10.8690    30.9630 h1         1 2Z4       0.036367
    101 H1         -11.3640    17.1710    30.8520 hn         1 2Z4       0.323500
    102 HA3        -10.1470    14.4960    30.9530 h1         1 2Z4       0.088700
    103 HB          -9.3300    16.8400    32.7090 hc         1 2Z4       0.059700
    104 HG14        -8.3540    13.9400    32.6420 hc         1 2Z4       0.038033
    105 HG15        -7.6280    15.2270    33.5990 hc         1 2Z4       0.038033
    106 HG16        -9.2600    14.6910    33.9570 hc         1 2Z4       0.038033
    107 HG24        -8.3110    17.0540    30.4470 hc         1 2Z4       0.038033
    108 HG25        -7.1040    16.6240    31.6480 hc         1 2Z4       0.038033
    109 HG26        -7.7180    15.3930    30.5490 hc         1 2Z4       0.038033
    110 HN11       -11.3160    13.2260    32.3100 hn         1 2Z4       0.317500
    111 HB1        -13.2390    14.4920    34.1710 h1         1 2Z4       0.060700
    112 HB2        -13.6510    13.1130    33.1750 h1         1 2Z4       0.060700
    113 HE11       -10.4350    12.5300    37.5900 ha         1 2Z4       0.136000
    114 HD21       -13.4000    10.9490    33.9870 ha         1 2Z4       0.130000
    115 HE21       -12.6570     9.3610    35.7150 ha         1 2Z4       0.151000
    116 HM1        -10.1070     9.4180    39.3440 h1         1 2Z4       0.042367
    117 HM2         -9.3090    10.6650    38.3710 h1         1 2Z4       0.042367
    118 HM3        -10.7250    11.0780    39.3640 h1         1 2Z4       0.042367
    119 HOH1       -10.5820    14.5370    36.5870 ho         1 2Z4       0.427000
@<TRIPOS>BOND
     1     1     2 2   
     2     1     3 1   
     3     1    11 1   
     4     3     4 1   
     5     4     5 1   
     6     4    61 1   
     7     4    62 1   
     8     5     6 ar  
     9     5    10 ar  
    10     6     7 ar  
    11     6    63 1   
    12     7     8 ar  
    13     7    64 1   
    14     8     9 ar  
    15     8    65 1   
    16     9    10 ar  
    17     9    66 1   
    18    10    67 1   
    19    11    12 1   
    20    11    68 1   
    21    12    13 1   
    22    12    17 1   
    23    12    69 1   
    24    13    14 1   
    25    13    15 1   
    26    13    16 1   
    27    14    70 1   
    28    14    71 1   
    29    14    72 1   
    30    15    73 1   
    31    15    74 1   
    32    15    75 1   
    33    16    76 1   
    34    16    77 1   
    35    16    78 1   
    36    17    18 2   
    37    17    19 1   
    38    19    20 1   
    39    19    79 1   
    40    20    21 1   
    41    20    28 1   
    42    20    80 1   
    43    21    22 1   
    44    21    81 1   
    45    21    82 1   
    46    22    23 ar  
    47    22    24 ar  
    48    23    25 ar  
    49    23    83 1   
    50    24    26 ar  
    51    24    84 1   
    52    25    27 ar  
    53    25    85 1   
    54    26    27 ar  
    55    26    86 1   
    56    27    87 1   
    57    28    29 1   
    58    28    31 1   
    59    28    88 1   
    60    29    89 1   
    61    30    31 1   
    62    30    32 1   
    63    30    90 1   
    64    31    41 1   
    65    31    91 1   
    66    32    33 1   
    67    32    92 1   
    68    32    93 1   
    69    33    34 ar  
    70    33    36 ar  
    71    34    35 ar  
    72    34    94 1   
    73    35    38 ar  
    74    35    95 1   
    75    36    37 ar  
    76    36    96 1   
    77    37    38 ar  
    78    37    97 1   
    79    38    39 1   
    80    39    40 1   
    81    40    98 1   
    82    40    99 1   
    83    40   100 1   
    84    41    42 2   
    85    41    43 1   
    86    43    44 1   
    87    43   101 1   
    88    44    45 1   
    89    44    47 1   
    90    44   102 1   
    91    45    46 2   
    92    45    50 1   
    93    47    48 1   
    94    47    49 1   
    95    47   103 1   
    96    48   104 1   
    97    48   105 1   
    98    48   106 1   
    99    49   107 1   
   100    49   108 1   
   101    49   109 1   
   102    50    51 1   
   103    50   110 1   
   104    51    52 1   
   105    51   111 1   
   106    51   112 1   
   107    52    53 ar  
   108    52    55 ar  
   109    53    54 ar  
   110    53    60 1   
   111    54    57 ar  
   112    54   113 1   
   113    55    56 ar  
   114    55   114 1   
   115    56    57 ar  
   116    56   115 1   
   117    57    58 1   
   118    58    59 1   
   119    59   116 1   
   120    59   117 1   
   121    59   118 1   
   122    60   119 1   
@<TRIPOS>SUBSTRUCTURE
     1 2Z4         1 TEMP              0 ****  ****    0 ROOT
