@<TRIPOS>MOLECULE
2Z4
  119   122     1     0     0
SMALL
No Charge or Current Charge


@<TRIPOS>ATOM
      1 C1          -7.2000    16.4060    21.9930 c          1 2Z4       0.641100
      2 O1          -7.7770    17.1920    21.2590 o          1 2Z4      -0.560000
      3 O2          -5.9230    15.9670    21.8430 os         1 2Z4      -0.456100
      4 C2          -5.1830    16.4570    20.7150 c3         1 2Z4       0.230900
      5 C3          -3.7690    15.8960    20.7900 ca         1 2Z4      -0.100300
      6 C4          -3.5030    14.5810    20.3580 ca         1 2Z4      -0.084500
      7 C5          -2.1990    14.0620    20.4290 ca         1 2Z4      -0.115500
      8 C6          -1.1520    14.8530    20.9320 ca         1 2Z4      -0.098000
      9 C7          -1.4120    16.1640    21.3660 ca         1 2Z4      -0.115500
     10 C8          -2.7160    16.6850    21.2950 ca         1 2Z4      -0.084500
     11 N           -7.7110    15.8750    23.1400 ns         1 2Z4      -0.485900
     12 CA          -9.0310    16.2060    23.7230 c3         1 2Z4       0.053700
     13 CB         -10.1100    15.1040    23.4090 c3         1 2Z4      -0.044000
     14 CG1        -11.4880    15.5310    23.9760 c3         1 2Z4      -0.091100
     15 CG2        -10.2630    14.9260    21.8720 c3         1 2Z4      -0.091100
     16 CG3         -9.7190    13.7340    24.0310 c3         1 2Z4      -0.091100
     17 C           -8.8210    16.4930    25.2420 c          1 2Z4       0.593100
     18 O           -8.0130    15.8720    25.9240 o          1 2Z4      -0.585100
     19 N1          -9.5440    17.5550    25.7510 ns         1 2Z4      -0.478900
     20 CA1         -9.2600    18.2180    27.0340 c3         1 2Z4       0.124700
     21 CB1         -8.2760    19.4010    26.8070 c3         1 2Z4      -0.054100
     22 CG11        -7.0070    19.0090    26.0550 ca         1 2Z4      -0.083300
     23 CD1         -5.9530    18.3620    26.7300 ca         1 2Z4      -0.100000
     24 CD2         -6.8860    19.2700    24.6750 ca         1 2Z4      -0.100000
     25 CE1         -4.7960    17.9740    26.0310 ca         1 2Z4      -0.106500
     26 CE2         -5.7290    18.8810    23.9770 ca         1 2Z4      -0.106500
     27 CZ1         -4.6850    18.2310    24.6540 ca         1 2Z4      -0.106000
     28 CM         -10.5580    18.6900    27.7790 c3         1 2Z4       0.164300
     29 OH         -11.3690    19.4880    26.8850 oh         1 2Z4      -0.665000
     30 N2         -12.1660    16.7660    27.3650 n7         1 2Z4      -0.839400
     31 CA2        -11.4520    17.5720    28.4140 c3         1 2Z4       0.078500
     32 CB2        -13.2720    15.8980    27.8190 c3         1 2Z4       0.215100
     33 CG21       -12.7660    14.6810    28.5840 ca         1 2Z4      -0.125300
     34 CD4        -11.9020    13.7640    27.9550 ca         1 2Z4      -0.050000
     35 CE3        -11.4170    12.6500    28.6590 ca         1 2Z4      -0.173000
     36 CD3        -13.1520    14.4600    29.9220 ca         1 2Z4      -0.050000
     37 CE4        -12.6670    13.3430    30.6260 ca         1 2Z4      -0.173000
     38 CZ2        -11.7900    12.4340    29.9940 ca         1 2Z4       0.139100
     39 OE2        -11.2750    11.3260    30.6340 os         1 2Z4      -0.339100
     40 CM2        -11.5880    11.0190    32.0030 c3         1 2Z4       0.149900
     41 C9         -10.6730    16.7490    29.5000 c          1 2Z4       0.600100
     42 O3          -9.7750    15.9560    29.2500 o          1 2Z4      -0.550100
     43 N3         -11.1020    16.9720    30.7940 ns         1 2Z4      -0.510900
     44 CA3        -10.5960    16.2760    32.0000 c3         1 2Z4       0.039700
     45 CC         -11.8020    16.0180    32.9550 c          1 2Z4       0.594100
     46 O4         -12.7750    16.7630    33.0090 o          1 2Z4      -0.619100
     47 CB3         -9.4560    17.0980    32.6920 c3         1 2Z4      -0.067700
     48 CG12        -8.9000    16.4020    33.9600 c3         1 2Z4      -0.090600
     49 CG22        -8.2920    17.4560    31.7340 c3         1 2Z4      -0.090600
     50 N4         -11.7200    14.8810    33.7260 ns         1 2Z4      -0.490900
     51 CB4        -12.7050    14.4850    34.7290 c3         1 2Z4       0.164300
     52 CG         -12.7420    12.9730    34.9030 ca         1 2Z4      -0.191300
     53 CD11       -11.6630    12.2750    35.4810 ca         1 2Z4       0.198100
     54 CE11       -11.7140    10.8820    35.6350 ca         1 2Z4      -0.302000
     55 CD21       -13.8820    12.2570    34.4890 ca         1 2Z4      -0.033000
     56 CE21       -13.9350    10.8630    34.6500 ca         1 2Z4      -0.185000
     57 CZ         -12.8570    10.1700    35.2180 ca         1 2Z4       0.192100
     58 OE         -12.9640     8.8010    35.3390 os         1 2Z4      -0.337100
     59 CM1        -11.9110     7.9940    35.8940 c3         1 2Z4       0.147900
     60 OH1        -10.5470    12.9400    35.8890 oh         1 2Z4      -0.521100
     61 H21         -5.6540    16.1420    19.7740 h1         1 2Z4       0.054200
     62 H22         -5.1430    17.5540    20.7230 h1         1 2Z4       0.054200
     63 H41         -4.3090    13.9620    19.9710 ha         1 2Z4       0.114000
     64 H51         -2.0000    13.0460    20.0940 ha         1 2Z4       0.113500
     65 H61         -0.1430    14.4510    20.9870 ha         1 2Z4       0.112000
     66 H71         -0.6020    16.7770    21.7570 ha         1 2Z4       0.113500
     67 H81         -2.9070    17.7010    21.6340 ha         1 2Z4       0.114000
     68 H           -7.0820    15.2860    23.6690 hn         1 2Z4       0.347500
     69 HA          -9.3690    17.1500    23.2760 h1         1 2Z4       0.078700
     70 HG11       -11.4660    15.5730    25.0680 hc         1 2Z4       0.040033
     71 HG12       -11.7820    16.5190    23.5990 hc         1 2Z4       0.040033
     72 HG13       -12.2700    14.8160    23.6930 hc         1 2Z4       0.040033
     73 HG21       -10.5040    15.8810    21.3890 hc         1 2Z4       0.040033
     74 HG22        -9.3430    14.5380    21.4190 hc         1 2Z4       0.040033
     75 HG23       -11.0670    14.2180    21.6360 hc         1 2Z4       0.040033
     76 HG31       -10.4690    12.9700    23.7920 hc         1 2Z4       0.040033
     77 HG32        -8.7530    13.3820    23.6470 hc         1 2Z4       0.040033
     78 HG33        -9.6480    13.7950    25.1230 hc         1 2Z4       0.040033
     79 HN1        -10.2220    17.9940    25.1430 hn         1 2Z4       0.315500
     80 HA1         -8.7360    17.5040    27.6810 h1         1 2Z4       0.110700
     81 HB11        -8.7950    20.1990    26.2630 hc         1 2Z4       0.052200
     82 HB12        -8.0080    19.8290    27.7810 hc         1 2Z4       0.052200
     83 HD1         -6.0340    18.1510    27.7930 ha         1 2Z4       0.109500
     84 HD2         -7.6940    19.7640    24.1390 ha         1 2Z4       0.109500
     85 HE1         -3.9880    17.4690    26.5570 ha         1 2Z4       0.111000
     86 HE2         -5.6460    19.0810    22.9110 ha         1 2Z4       0.111000
     87 HZ1         -3.7920    17.9250    24.1140 ha         1 2Z4       0.110000
     88 HM         -10.2250    19.3190    28.6160 h1         1 2Z4       0.037700
     89 HOH        -12.0160    19.9780    27.4370 ho         1 2Z4       0.446000
     90 HN2        -12.5500    17.4430    26.6950 hn         1 2Z4       0.430000
     91 HA2        -12.2300    18.1150    28.9680 h1         1 2Z4       0.013700
     92 HB21       -13.9770    16.4680    28.4390 h1         1 2Z4       0.033700
     93 HB22       -13.8320    15.5370    26.9460 h1         1 2Z4       0.033700
     94 HD4        -11.5960    13.9250    26.9240 ha         1 2Z4       0.114000
     95 HE3        -10.7430    11.9520    28.1680 ha         1 2Z4       0.119500
     96 HD3        -13.8220    15.1580    30.4190 ha         1 2Z4       0.114000
     97 HE4        -12.9810    13.2010    31.6560 ha         1 2Z4       0.119500
     98 HM21       -11.0740    10.1020    32.3160 h1         1 2Z4       0.036367
     99 HM22       -11.2670    11.8330    32.6650 h1         1 2Z4       0.036367
    100 HM23       -12.6670    10.8640    32.1280 h1         1 2Z4       0.036367
    101 H1         -11.8800    17.6120    30.9130 hn         1 2Z4       0.323500
    102 HA3        -10.2040    15.2950    31.7020 h1         1 2Z4       0.088700
    103 HB          -9.8960    18.0490    33.0210 hc         1 2Z4       0.059700
    104 HG14        -8.5290    15.3970    33.7240 hc         1 2Z4       0.038033
    105 HG15        -8.0700    16.9790    34.3860 hc         1 2Z4       0.038033
    106 HG16        -9.6660    16.3180    34.7390 hc         1 2Z4       0.038033
    107 HG24        -8.6330    18.0950    30.9100 hc         1 2Z4       0.038033
    108 HG25        -7.5070    18.0070    32.2650 hc         1 2Z4       0.038033
    109 HG26        -7.8430    16.5500    31.3090 hc         1 2Z4       0.038033
    110 HN11       -10.8810    14.3210    33.6440 hn         1 2Z4       0.317500
    111 HB1        -12.4460    14.9610    35.6840 h1         1 2Z4       0.060700
    112 HB2        -13.6970    14.8490    34.4310 h1         1 2Z4       0.060700
    113 HE11       -10.8680    10.3660    36.0770 ha         1 2Z4       0.118000
    114 HD21       -14.7270    12.7780    34.0430 ha         1 2Z4       0.112000
    115 HE21       -14.8170    10.3150    34.3280 ha         1 2Z4       0.133000
    116 HM1        -12.2030     6.9370    35.8940 h1         1 2Z4       0.042367
    117 HM2        -10.9920     8.0930    35.3030 h1         1 2Z4       0.042367
    118 HM3        -11.6990     8.2880    36.9300 h1         1 2Z4       0.042367
    119 HOH1        -9.9390    12.2900    36.2960 ho         1 2Z4       0.466000
@<TRIPOS>BOND
     1     1     2 2   
     2     1     3 1   
     3     1    11 1   
     4     3     4 1   
     5     4     5 1   
     6     4    61 1   
     7     4    62 1   
     8     5     6 ar  
     9     5    10 ar  
    10     6     7 ar  
    11     6    63 1   
    12     7     8 ar  
    13     7    64 1   
    14     8     9 ar  
    15     8    65 1   
    16     9    10 ar  
    17     9    66 1   
    18    10    67 1   
    19    11    12 1   
    20    11    68 1   
    21    12    13 1   
    22    12    17 1   
    23    12    69 1   
    24    13    14 1   
    25    13    15 1   
    26    13    16 1   
    27    14    70 1   
    28    14    71 1   
    29    14    72 1   
    30    15    73 1   
    31    15    74 1   
    32    15    75 1   
    33    16    76 1   
    34    16    77 1   
    35    16    78 1   
    36    17    18 2   
    37    17    19 1   
    38    19    20 1   
    39    19    79 1   
    40    20    21 1   
    41    20    28 1   
    42    20    80 1   
    43    21    22 1   
    44    21    81 1   
    45    21    82 1   
    46    22    23 ar  
    47    22    24 ar  
    48    23    25 ar  
    49    23    83 1   
    50    24    26 ar  
    51    24    84 1   
    52    25    27 ar  
    53    25    85 1   
    54    26    27 ar  
    55    26    86 1   
    56    27    87 1   
    57    28    29 1   
    58    28    31 1   
    59    28    88 1   
    60    29    89 1   
    61    30    31 1   
    62    30    32 1   
    63    30    90 1   
    64    31    41 1   
    65    31    91 1   
    66    32    33 1   
    67    32    92 1   
    68    32    93 1   
    69    33    34 ar  
    70    33    36 ar  
    71    34    35 ar  
    72    34    94 1   
    73    35    38 ar  
    74    35    95 1   
    75    36    37 ar  
    76    36    96 1   
    77    37    38 ar  
    78    37    97 1   
    79    38    39 1   
    80    39    40 1   
    81    40    98 1   
    82    40    99 1   
    83    40   100 1   
    84    41    42 2   
    85    41    43 1   
    86    43    44 1   
    87    43   101 1   
    88    44    45 1   
    89    44    47 1   
    90    44   102 1   
    91    45    46 2   
    92    45    50 1   
    93    47    48 1   
    94    47    49 1   
    95    47   103 1   
    96    48   104 1   
    97    48   105 1   
    98    48   106 1   
    99    49   107 1   
   100    49   108 1   
   101    49   109 1   
   102    50    51 1   
   103    50   110 1   
   104    51    52 1   
   105    51   111 1   
   106    51   112 1   
   107    52    53 ar  
   108    52    55 ar  
   109    53    54 ar  
   110    53    60 1   
   111    54    57 ar  
   112    54   113 1   
   113    55    56 ar  
   114    55   114 1   
   115    56    57 ar  
   116    56   115 1   
   117    57    58 1   
   118    58    59 1   
   119    59   116 1   
   120    59   117 1   
   121    59   118 1   
   122    60   119 1   
@<TRIPOS>SUBSTRUCTURE
     1 2Z4         1 TEMP              0 ****  ****    0 ROOT
