@<TRIPOS>MOLECULE
2Z5
   54    54     1     0     0
SMALL
abcg2


@<TRIPOS>ATOM
      1 C1          -4.7330    -0.9900     0.8120 c          1 2Z5       0.556100
      2 C2          -6.0930    -1.6770     1.0400 c3         1 2Z5       0.222000
      3 O           -4.0210    -0.7400     1.7590 o          1 2Z5      -0.527100
      4 F1          -6.3030    -1.8790     2.3310 f          1 2Z5      -0.097333
      5 F2          -7.0960    -0.9300     0.5660 f          1 2Z5      -0.097333
      6 F3          -6.1440    -2.8590     0.4200 f          1 2Z5      -0.097333
      7 N           -4.4850    -0.7070    -0.4680 ns         1 2Z5      -0.483900
      8 CA          -3.2330    -0.1520    -0.9260 c3         1 2Z5       0.038700
      9 C           -2.1040    -1.1750    -0.7150 c          1 2Z5       0.590100
     10 O1          -2.3170    -2.2930    -0.2830 o          1 2Z5      -0.561100
     11 CB          -2.9200     1.2330    -0.3430 c3         1 2Z5      -0.084400
     12 CG          -4.0790     2.2100    -0.4810 c3         1 2Z5      -0.066400
     13 CD          -3.6960     3.6010     0.0100 c3         1 2Z5      -0.107400
     14 CE          -4.8610     4.5590    -0.1270 c3         1 2Z5       0.098600
     15 NZ          -4.5060     5.9160     0.3660 nz         1 2Z5      -0.974000
     16 N1          -0.8840    -0.7400    -1.0680 ns         1 2Z5      -0.499900
     17 CA1          0.2920    -1.5710    -0.9920 c3         1 2Z5       0.031700
     18 C3           1.5030    -0.6580    -0.8400 c          1 2Z5       0.603100
     19 O2           1.5110     0.4710    -1.2920 o          1 2Z5      -0.595100
     20 CB1          0.4650    -2.4520    -2.2310 c3         1 2Z5      -0.113100
     21 N2           2.5470    -1.2450    -0.2080 ns         1 2Z5      -0.135000
     22 C11          3.8250    -0.7440     0.0390 ca         1 2Z5       0.000000
     23 C21          4.2860     0.4930    -0.4100 ca         1 2Z5      -0.156500
     24 C31          5.5770     0.8970    -0.1070 ca         1 2Z5      -0.029500
     25 C4           6.4260     0.0890     0.6340 ca         1 2Z5      -0.219300
     26 C5           5.9660    -1.1460     1.0820 ca         1 2Z5      -0.029500
     27 C6           4.6830    -1.5560     0.7860 ca         1 2Z5      -0.156500
     28 C7           7.7990     0.5420     1.0030 c3         1 2Z5       0.361300
     29 F11          7.8480     1.0130     2.2610 f          1 2Z5      -0.111333
     30 F21          8.6930    -0.4540     0.9390 f          1 2Z5      -0.111333
     31 F31          8.2460     1.5220     0.2100 f          1 2Z5      -0.111333
     32 H           -5.1330    -1.0020    -1.1810 hn         1 2Z5       0.342500
     33 HA          -3.3500    -0.0340    -2.0070 h1         1 2Z5       0.071700
     34 HB2         -2.6180     1.1510     0.7010 hc         1 2Z5       0.070200
     35 HB3         -2.0630     1.6430    -0.8820 hc         1 2Z5       0.070200
     36 HG2         -4.3910     2.2650    -1.5280 hc         1 2Z5       0.058200
     37 HG3         -4.9440     1.8570     0.0850 hc         1 2Z5       0.058200
     38 HD2         -3.3840     3.5490     1.0570 hc         1 2Z5       0.069200
     39 HD3         -2.8410     3.9750    -0.5600 hc         1 2Z5       0.069200
     40 HE2         -5.1670     4.6750    -1.1650 hx         1 2Z5       0.107700
     41 HE3         -5.7220     4.2320     0.4530 hx         1 2Z5       0.107700
     42 HZ1         -5.2870     6.5640     0.2710 hn         1 2Z5       0.513667
     43 HZ2         -4.2440     5.9060     1.3510 hn         1 2Z5       0.513667
     44 HZ3         -3.7240     6.3150    -0.1520 hn         1 2Z5       0.513667
     45 H1          -0.7760     0.1650    -1.5000 hn         1 2Z5       0.331500
     46 HA1          0.2020    -2.2100    -0.1110 h1         1 2Z5       0.091700
     47 HB1          0.5480    -1.8430    -3.1320 hc         1 2Z5       0.057700
     48 HB21         1.3560    -3.0750    -2.1530 hc         1 2Z5       0.057700
     49 HB31        -0.3960    -3.1110    -2.3380 hc         1 2Z5       0.057700
     50 HN2          2.3780    -2.1690     0.1630 hn         1 2Z5       0.162000
     51 H2           3.6600     1.1470    -0.9930 ha         1 2Z5       0.134500
     52 H3           5.9040     1.8630    -0.4700 ha         1 2Z5       0.135500
     53 H5           6.5990    -1.8020     1.6640 ha         1 2Z5       0.135500
     54 H6           4.3410    -2.5210     1.1410 ha         1 2Z5       0.134500
@<TRIPOS>BOND
     1     1     2 1   
     2     1     3 2   
     3     1     7 1   
     4     2     4 1   
     5     2     5 1   
     6     2     6 1   
     7     7     8 1   
     8     7    32 1   
     9     8     9 1   
    10     8    11 1   
    11     8    33 1   
    12     9    10 2   
    13     9    16 1   
    14    11    12 1   
    15    11    34 1   
    16    11    35 1   
    17    12    13 1   
    18    12    36 1   
    19    12    37 1   
    20    13    14 1   
    21    13    38 1   
    22    13    39 1   
    23    14    15 1   
    24    14    40 1   
    25    14    41 1   
    26    15    42 1   
    27    15    43 1   
    28    15    44 1   
    29    16    17 1   
    30    16    45 1   
    31    17    18 1   
    32    17    20 1   
    33    17    46 1   
    34    18    19 2   
    35    18    21 1   
    36    20    47 1   
    37    20    48 1   
    38    20    49 1   
    39    21    22 1   
    40    21    50 1   
    41    22    23 ar  
    42    22    27 ar  
    43    23    24 ar  
    44    23    51 1   
    45    24    25 ar  
    46    24    52 1   
    47    25    26 ar  
    48    25    28 1   
    49    26    27 ar  
    50    26    53 1   
    51    27    54 1   
    52    28    29 1   
    53    28    30 1   
    54    28    31 1   
@<TRIPOS>SUBSTRUCTURE
     1 2Z5         1 TEMP              0 ****  ****    0 ROOT
