@<TRIPOS>MOLECULE
2Z5
   54    54     1     0     0
SMALL
No Charge or Current Charge


@<TRIPOS>ATOM
      1 C1          -5.0710    -0.9940     0.7820 c          1 2Z5       0.556100
      2 C2          -6.5020    -1.5880     0.9050 c3         1 2Z5       0.222000
      3 O           -4.3660    -0.7380     1.7520 o          1 2Z5      -0.527100
      4 F1          -6.8540    -1.8070     2.1950 f          1 2Z5      -0.097333
      5 F2          -7.4270    -0.7540     0.3730 f          1 2Z5      -0.097333
      6 F3          -6.6020    -2.7720     0.2550 f          1 2Z5      -0.097333
      7 N           -4.6390    -0.7670    -0.5190 ns         1 2Z5      -0.483900
      8 CA          -3.3210    -0.2050    -0.9120 c3         1 2Z5       0.038700
      9 C           -2.1630    -1.2240    -0.6490 c          1 2Z5       0.590100
     10 O1          -2.3500    -2.3660    -0.2460 o          1 2Z5      -0.561100
     11 CB          -3.0560     1.2160    -0.3270 c3         1 2Z5      -0.084400
     12 CG          -4.2100     2.2230    -0.5570 c3         1 2Z5      -0.066400
     13 CD          -3.8900     3.6370    -0.0260 c3         1 2Z5      -0.107400
     14 CE          -5.0420     4.6280    -0.2540 c3         1 2Z5       0.098600
     15 NZ          -4.6890     5.9910     0.2800 nz         1 2Z5      -0.974000
     16 N1          -0.8880    -0.7570    -0.9060 ns         1 2Z5      -0.499900
     17 CA1          0.3600    -1.5380    -0.7360 c3         1 2Z5       0.031700
     18 C3           1.5860    -0.5860    -0.5910 c          1 2Z5       0.603100
     19 O2           1.4970     0.6220    -0.7970 o          1 2Z5      -0.595100
     20 CB1          0.5350    -2.5400    -1.9030 c3         1 2Z5      -0.113100
     21 N2           2.7590    -1.2290    -0.2110 ns         1 2Z5      -0.135000
     22 C11          4.0790    -0.7560     0.0320 ca         1 2Z5       0.000000
     23 C21          4.4570     0.6000    -0.0650 ca         1 2Z5      -0.156500
     24 C31          5.7830     0.9920     0.1890 ca         1 2Z5      -0.029500
     25 C4           6.7590     0.0370     0.5410 ca         1 2Z5      -0.219300
     26 C5           6.3790    -1.3160     0.6480 ca         1 2Z5      -0.029500
     27 C6           5.0530    -1.7040     0.3920 ca         1 2Z5      -0.156500
     28 C7           8.2020     0.4680     0.8290 c3         1 2Z5       0.361300
     29 F11          8.3700     0.7770     2.1340 f          1 2Z5      -0.111333
     30 F21          9.0970    -0.5030     0.5350 f          1 2Z5      -0.111333
     31 F31          8.5670     1.5570     0.1140 f          1 2Z5      -0.111333
     32 H           -5.2870    -1.0270    -1.2560 hn         1 2Z5       0.342500
     33 HA          -3.3470    -0.0890    -2.0040 h1         1 2Z5       0.071700
     34 HB2         -2.8520     1.1400     0.7480 hc         1 2Z5       0.070200
     35 HB3         -2.1470     1.6310    -0.7820 hc         1 2Z5       0.070200
     36 HG2         -4.4280     2.2820    -1.6320 hc         1 2Z5       0.058200
     37 HG3         -5.1210     1.8600    -0.0660 hc         1 2Z5       0.058200
     38 HD2         -3.6710     3.5780     1.0480 hc         1 2Z5       0.069200
     39 HD3         -2.9860     4.0140    -0.5200 hc         1 2Z5       0.069200
     40 HE2         -5.2540     4.7000    -1.3270 hx         1 2Z5       0.107700
     41 HE3         -5.9440     4.2620     0.2500 hx         1 2Z5       0.107700
     42 HZ1         -5.4410     6.6860     0.1440 hn         1 2Z5       0.513667
     43 HZ2         -4.4930     5.9960     1.2930 hn         1 2Z5       0.513667
     44 HZ3         -3.8550     6.4020    -0.1680 hn         1 2Z5       0.513667
     45 H1          -0.8050     0.2020    -1.2280 hn         1 2Z5       0.331500
     46 HA1          0.2900    -2.1030     0.2040 h1         1 2Z5       0.091700
     47 HB1          0.6290    -2.0100    -2.8590 hc         1 2Z5       0.057700
     48 HB21         1.4310    -3.1570    -1.7640 hc         1 2Z5       0.057700
     49 HB31        -0.3260    -3.2160    -1.9700 hc         1 2Z5       0.057700
     50 HN2          2.6570    -2.2270    -0.0820 hn         1 2Z5       0.162000
     51 H2           3.7420     1.3700    -0.3340 ha         1 2Z5       0.134500
     52 H3           6.0450     2.0460     0.1140 ha         1 2Z5       0.135500
     53 H5           7.1070    -2.0740     0.9320 ha         1 2Z5       0.135500
     54 H6           4.7840    -2.7550     0.4790 ha         1 2Z5       0.134500
@<TRIPOS>BOND
     1     1     2 1   
     2     1     3 2   
     3     1     7 1   
     4     2     4 1   
     5     2     5 1   
     6     2     6 1   
     7     7     8 1   
     8     7    32 1   
     9     8     9 1   
    10     8    11 1   
    11     8    33 1   
    12     9    10 2   
    13     9    16 1   
    14    11    12 1   
    15    11    34 1   
    16    11    35 1   
    17    12    13 1   
    18    12    36 1   
    19    12    37 1   
    20    13    14 1   
    21    13    38 1   
    22    13    39 1   
    23    14    15 1   
    24    14    40 1   
    25    14    41 1   
    26    15    42 1   
    27    15    43 1   
    28    15    44 1   
    29    16    17 1   
    30    16    45 1   
    31    17    18 1   
    32    17    20 1   
    33    17    46 1   
    34    18    19 2   
    35    18    21 1   
    36    20    47 1   
    37    20    48 1   
    38    20    49 1   
    39    21    22 1   
    40    21    50 1   
    41    22    23 ar  
    42    22    27 ar  
    43    23    24 ar  
    44    23    51 1   
    45    24    25 ar  
    46    24    52 1   
    47    25    26 ar  
    48    25    28 1   
    49    26    27 ar  
    50    26    53 1   
    51    27    54 1   
    52    28    29 1   
    53    28    30 1   
    54    28    31 1   
@<TRIPOS>SUBSTRUCTURE
     1 2Z5         1 TEMP              0 ****  ****    0 ROOT
