@<TRIPOS>MOLECULE
2Z9
   64    63     1     0     0
SMALL
abcg2


@<TRIPOS>ATOM
      1 C            6.4500    -0.2570     1.1530 c          1 2Z9       0.619100
      2 O            6.0490    -1.0840     1.9590 o          1 2Z9      -0.609100
      3 CH3          7.7740     0.4470     1.3550 c3         1 2Z9      -0.179100
      4 N            5.8020     0.0900     0.0270 ns         1 2Z9      -0.460900
      5 CA           4.5230    -0.3910    -0.4370 c3         1 2Z9       0.062700
      6 C1           3.3750     0.2760     0.3220 c          1 2Z9       0.585100
      7 O1           3.4800     0.6790     1.4670 o          1 2Z9      -0.618100
      8 CB           4.3710    -1.9130    -0.4190 c3         1 2Z9      -0.218400
      9 CG           5.4160    -2.6370    -1.2910 c          1 2Z9       0.723000
     10 OD1          5.7930    -2.0500    -2.3240 o          1 2Z9      -0.750000
     11 OD2          5.7630    -3.7720    -0.9110 o          1 2Z9      -0.750000
     12 N1           2.2390     0.3500    -0.3950 ns         1 2Z9      -0.495900
     13 CA1          0.9680     0.7830     0.1290 c3         1 2Z9       0.027700
     14 C2          -0.1070    -0.1950    -0.3370 c          1 2Z9       0.593100
     15 O2          -0.0080    -0.7930    -1.3980 o          1 2Z9      -0.627100
     16 CB1          0.5850     2.1990    -0.3270 c3         1 2Z9      -0.065400
     17 CG1          1.5590     3.2580     0.1550 c3         1 2Z9      -0.201400
     18 CD           1.1880     4.7060    -0.2110 c          1 2Z9       0.715000
     19 OE1          0.1280     4.8980    -0.8390 o          1 2Z9      -0.752000
     20 OE2          1.9960     5.5830     0.1610 o          1 2Z9      -0.752000
     21 N2          -1.1610    -0.2900     0.4870 ns         1 2Z9      -0.485900
     22 CA2         -2.3820    -0.9830     0.1680 c3         1 2Z9       0.026700
     23 C3          -3.5630    -0.0620     0.4860 c          1 2Z9       0.587100
     24 O3          -3.4120     0.9850     1.1010 o          1 2Z9      -0.625100
     25 CB2         -2.5180    -2.3290     0.9150 c3         1 2Z9      -0.067700
     26 CG11        -1.3520    -3.2550     0.5910 c3         1 2Z9      -0.084100
     27 CG2         -2.6720    -2.1450     2.4210 c3         1 2Z9      -0.084100
     28 N3          -4.7490    -0.5120     0.0660 ns         1 2Z9      -0.462900
     29 CA3         -6.0220     0.0940     0.4260 c3         1 2Z9       0.130700
     30 C4          -6.4080    -0.2640     1.8540 c3         1 2Z9       0.126600
     31 O4          -6.5430    -1.6620     1.9670 oh         1 2Z9      -0.660000
     32 CB3         -7.0670    -0.3110    -0.6010 c3         1 2Z9      -0.220400
     33 CG3         -6.7970     0.2530    -2.0100 c          1 2Z9       0.715000
     34 OD11        -6.3430     1.4130    -2.0730 o          1 2Z9      -0.731500
     35 OD21        -7.0880    -0.4840    -2.9730 o          1 2Z9      -0.731500
     36 H1           7.7950     0.8970     2.3470 hc         1 2Z9       0.038033
     37 H2           8.5810    -0.2850     1.3140 hc         1 2Z9       0.038033
     38 H3           7.9800     1.2240     0.6210 hc         1 2Z9       0.038033
     39 H            6.2400     0.7820    -0.5560 hn         1 2Z9       0.300500
     40 HA           4.4640    -0.0810    -1.4820 h1         1 2Z9       0.072700
     41 HB2          4.3870    -2.2920     0.5990 hc         1 2Z9       0.048200
     42 HB3          3.3820    -2.1540    -0.8240 hc         1 2Z9       0.048200
     43 H4           2.2410     0.0170    -1.3470 hn         1 2Z9       0.329500
     44 HA1          1.0340     0.7660     1.2190 h1         1 2Z9       0.073700
     45 HB21         0.5170     2.2130    -1.4190 hc         1 2Z9       0.055700
     46 HB31        -0.4180     2.4190     0.0460 hc         1 2Z9       0.055700
     47 HG2          1.6630     3.1930     1.2440 hc         1 2Z9       0.025700
     48 HG3          2.5600     3.0550    -0.2380 hc         1 2Z9       0.025700
     49 H5          -1.1810     0.3080     1.2990 hn         1 2Z9       0.331500
     50 HA2         -2.3790    -1.1910    -0.9050 h1         1 2Z9       0.097700
     51 HB          -3.4280    -2.8050     0.5380 hc         1 2Z9       0.040700
     52 HG11        -0.4140    -2.8780     1.0010 hc         1 2Z9       0.032033
     53 HG12        -1.5260    -4.2400     1.0250 hc         1 2Z9       0.032033
     54 HG13        -1.2240    -3.3820    -0.4840 hc         1 2Z9       0.032033
     55 HG21        -3.5810    -1.6000     2.6800 hc         1 2Z9       0.032033
     56 HG22        -2.7320    -3.1170     2.9130 hc         1 2Z9       0.032033
     57 HG23        -1.8200    -1.6160     2.8510 hc         1 2Z9       0.032033
     58 H6          -4.7830    -1.4110    -0.3880 hn         1 2Z9       0.315500
     59 HA3         -5.9050     1.1770     0.3800 h1         1 2Z9       0.104700
     60 HB22        -7.1710    -1.3980    -0.6380 hc         1 2Z9       0.022700
     61 HB32        -8.0370     0.0740    -0.2660 hc         1 2Z9       0.022700
     62 H30         -6.6230    -1.8820     2.8990 ho         1 2Z9       0.412000
     63 HXT         -5.6410     0.1190     2.5370 h1         1 2Z9       0.015200
     64 H32         -7.3430     0.2590     2.0990 h1         1 2Z9       0.015200
@<TRIPOS>BOND
     1     1     2 2   
     2     1     3 1   
     3     1     4 1   
     4     3    36 1   
     5     3    37 1   
     6     3    38 1   
     7     4     5 1   
     8     4    39 1   
     9     5     6 1   
    10     5     8 1   
    11     5    40 1   
    12     6     7 2   
    13     6    12 1   
    14     8     9 1   
    15     8    41 1   
    16     8    42 1   
    17     9    10 1   
    18     9    11 1   
    19    12    13 1   
    20    12    43 1   
    21    13    14 1   
    22    13    16 1   
    23    13    44 1   
    24    14    15 2   
    25    14    21 1   
    26    16    17 1   
    27    16    45 1   
    28    16    46 1   
    29    17    18 1   
    30    17    47 1   
    31    17    48 1   
    32    18    19 1   
    33    18    20 1   
    34    21    22 1   
    35    21    49 1   
    36    22    23 1   
    37    22    25 1   
    38    22    50 1   
    39    23    24 2   
    40    23    28 1   
    41    25    26 1   
    42    25    27 1   
    43    25    51 1   
    44    26    52 1   
    45    26    53 1   
    46    26    54 1   
    47    27    55 1   
    48    27    56 1   
    49    27    57 1   
    50    28    29 1   
    51    28    58 1   
    52    29    30 1   
    53    29    32 1   
    54    29    59 1   
    55    30    31 1   
    56    30    63 1   
    57    30    64 1   
    58    31    62 1   
    59    32    33 1   
    60    32    60 1   
    61    32    61 1   
    62    33    34 1   
    63    33    35 1   
@<TRIPOS>SUBSTRUCTURE
     1 2Z9         1 TEMP              0 ****  ****    0 ROOT
