@<TRIPOS>MOLECULE
2Z9
   64    63     1     0     0
SMALL
No Charge or Current Charge


@<TRIPOS>ATOM
      1 C            6.0430    -1.1710     1.3240 c          1 2Z9       0.619100
      2 O            5.1270    -1.9440     1.5710 o          1 2Z9      -0.609100
      3 CH3          7.3660    -1.2060     2.0850 c3         1 2Z9      -0.179100
      4 N            5.9690    -0.1930     0.3550 ns         1 2Z9      -0.460900
      5 CA           4.8130     0.0450    -0.5410 c3         1 2Z9       0.062700
      6 C1           3.5670     0.5560     0.2650 c          1 2Z9       0.585100
      7 O1           3.6450     1.0130     1.4000 o          1 2Z9      -0.618100
      8 CB           4.5320    -1.1360    -1.5220 c3         1 2Z9      -0.218400
      9 CG           5.8030    -1.5390    -2.2780 c          1 2Z9       0.723000
     10 OD1          6.0850    -0.9170    -3.2910 o          1 2Z9      -0.750000
     11 OD2          6.4900    -2.4440    -1.8300 o          1 2Z9      -0.750000
     12 N1           2.3530     0.4680    -0.3900 ns         1 2Z9      -0.495900
     13 CA1          1.0450     0.9000     0.1570 c3         1 2Z9       0.027700
     14 C2          -0.0580    -0.1310    -0.2220 c          1 2Z9       0.593100
     15 O2           0.0900    -0.9790    -1.0960 o          1 2Z9      -0.627100
     16 CB1          0.6680     2.3280    -0.3310 c3         1 2Z9      -0.065400
     17 CG1          1.6610     3.4440     0.0900 c3         1 2Z9      -0.201400
     18 CD           1.1300     4.8220    -0.3420 c          1 2Z9       0.715000
     19 OE1          0.3980     5.4260     0.4270 o          1 2Z9      -0.752000
     20 OE2          1.4200     5.2280    -1.4570 o          1 2Z9      -0.752000
     21 N2          -1.2280    -0.0250     0.5000 ns         1 2Z9      -0.485900
     22 CA2         -2.4150    -0.9030     0.3490 c3         1 2Z9       0.026700
     23 C3          -3.7210    -0.0560     0.4310 c          1 2Z9       0.587100
     24 O3          -3.7340     1.1270     0.7520 o          1 2Z9      -0.625100
     25 CB2         -2.4050    -2.0800     1.3780 c3         1 2Z9      -0.067700
     26 CG11        -1.2270    -3.0580     1.1540 c3         1 2Z9      -0.084100
     27 CG2         -2.4540    -1.5960     2.8480 c3         1 2Z9      -0.084100
     28 N3          -4.8780    -0.7310     0.1090 ns         1 2Z9      -0.462900
     29 CA3         -6.2270    -0.1590     0.1710 c3         1 2Z9       0.130700
     30 C4          -6.7440    -0.0690     1.6390 c3         1 2Z9       0.126600
     31 O4          -6.7860    -1.3600     2.2720 oh         1 2Z9      -0.660000
     32 CB3         -7.1980    -0.9200    -0.7670 c3         1 2Z9      -0.220400
     33 CG3         -6.7180    -0.8240    -2.2200 c          1 2Z9       0.715000
     34 OD11        -7.0590     0.1520    -2.8710 o          1 2Z9      -0.731500
     35 OD21        -5.9940    -1.7080    -2.6510 o          1 2Z9      -0.731500
     36 H1           7.3940    -1.9880     2.8530 hc         1 2Z9       0.038033
     37 H2           8.1880    -1.3150     1.3680 hc         1 2Z9       0.038033
     38 H3           7.5610    -0.2150     2.5110 hc         1 2Z9       0.038033
     39 H            6.7850     0.3990     0.2550 hn         1 2Z9       0.300500
     40 HA           5.0900     0.9000    -1.1720 h1         1 2Z9       0.072700
     41 HB2          4.1610    -1.9750    -0.9220 hc         1 2Z9       0.048200
     42 HB3          3.8000    -0.7570    -2.2450 hc         1 2Z9       0.048200
     43 H4           2.3610     0.0320    -1.3050 hn         1 2Z9       0.329500
     44 HA1          1.1010     0.9060     1.2540 h1         1 2Z9       0.073700
     45 HB21         0.5780     2.3210    -1.4240 hc         1 2Z9       0.055700
     46 HB31        -0.3250     2.5840     0.0600 hc         1 2Z9       0.055700
     47 HG2          1.7300     3.3900     1.1840 hc         1 2Z9       0.025700
     48 HG3          2.6050     3.2270    -0.4240 hc         1 2Z9       0.025700
     49 H5          -1.2820     0.7310     1.1740 hn         1 2Z9       0.331500
     50 HA2         -2.4060    -1.3320    -0.6620 h1         1 2Z9       0.097700
     51 HB          -3.3170    -2.6660     1.2090 hc         1 2Z9       0.040700
     52 HG11        -0.2660    -2.5780     1.3750 hc         1 2Z9       0.032033
     53 HG12        -1.3260    -3.9340     1.8050 hc         1 2Z9       0.032033
     54 HG13        -1.2080    -3.4100     0.1160 hc         1 2Z9       0.032033
     55 HG21        -3.3340    -0.9670     3.0280 hc         1 2Z9       0.032033
     56 HG22        -2.5110    -2.4520     3.5320 hc         1 2Z9       0.032033
     57 HG23        -1.5580    -1.0180     3.1040 hc         1 2Z9       0.032033
     58 H6          -4.7880    -1.7060    -0.1480 hn         1 2Z9       0.315500
     59 HA3         -6.1650     0.8740    -0.2020 h1         1 2Z9       0.104700
     60 HB22        -7.2090    -1.9650    -0.4320 hc         1 2Z9       0.022700
     61 HB32        -8.1640    -0.4130    -0.6580 hc         1 2Z9       0.022700
     62 H30         -7.1230    -1.2210     3.1830 ho         1 2Z9       0.412000
     63 HXT         -6.0860     0.6010     2.2070 h1         1 2Z9       0.015200
     64 H32         -7.7450     0.3830     1.6380 h1         1 2Z9       0.015200
@<TRIPOS>BOND
     1     1     2 2   
     2     1     3 1   
     3     1     4 1   
     4     3    36 1   
     5     3    37 1   
     6     3    38 1   
     7     4     5 1   
     8     4    39 1   
     9     5     6 1   
    10     5     8 1   
    11     5    40 1   
    12     6     7 2   
    13     6    12 1   
    14     8     9 1   
    15     8    41 1   
    16     8    42 1   
    17     9    10 1   
    18     9    11 1   
    19    12    13 1   
    20    12    43 1   
    21    13    14 1   
    22    13    16 1   
    23    13    44 1   
    24    14    15 2   
    25    14    21 1   
    26    16    17 1   
    27    16    45 1   
    28    16    46 1   
    29    17    18 1   
    30    17    47 1   
    31    17    48 1   
    32    18    19 1   
    33    18    20 1   
    34    21    22 1   
    35    21    49 1   
    36    22    23 1   
    37    22    25 1   
    38    22    50 1   
    39    23    24 2   
    40    23    28 1   
    41    25    26 1   
    42    25    27 1   
    43    25    51 1   
    44    26    52 1   
    45    26    53 1   
    46    26    54 1   
    47    27    55 1   
    48    27    56 1   
    49    27    57 1   
    50    28    29 1   
    51    28    58 1   
    52    29    30 1   
    53    29    32 1   
    54    29    59 1   
    55    30    31 1   
    56    30    63 1   
    57    30    64 1   
    58    31    62 1   
    59    32    33 1   
    60    32    60 1   
    61    32    61 1   
    62    33    34 1   
    63    33    35 1   
@<TRIPOS>SUBSTRUCTURE
     1 2Z9         1 TEMP              0 ****  ****    0 ROOT
