@<TRIPOS>MOLECULE
2ZE
   58    61     1     0     0
SMALL
No Charge or Current Charge


@<TRIPOS>ATOM
      1 OAC          5.3390    -0.3000     1.6200 oh         1 2ZE      -0.663000
      2 CAV          3.9580    -0.6910     1.5050 c3         1 2ZE       0.171600
      3 CAN          3.2680    -0.2480     0.1510 c6         1 2ZE      -0.025000
      4 CAW          4.0150    -1.0680    -0.9680 c3         1 2ZE      -0.087100
      5 CAT          3.4850     1.3020    -0.0620 c6         1 2ZE       0.184300
      6 OAB          3.1440     2.0570     1.1150 oh         1 2ZE      -0.662000
      7 CAU          2.6720     1.8710    -1.2580 c6         1 2ZE      -0.114400
      8 CAQ          1.1450     1.6090    -1.1060 c6         1 2ZE      -0.066400
      9 CAF          0.7700     0.0900    -0.9390 c6         1 2ZE      -0.006000
     10 CAS          1.0660    -0.6000    -2.3340 c3         1 2ZE      -0.087100
     11 CAH          1.6980    -0.5350     0.2400 c6         1 2ZE      -0.048700
     12 CAO          1.3140    -2.0350     0.5350 c6         1 2ZE      -0.071400
     13 CAM         -0.2070    -2.2430     0.8050 c6         1 2ZE      -0.062400
     14 CAG         -1.0400    -1.6710    -0.3620 c5         1 2ZE      -0.067700
     15 CAK         -2.5910    -1.8760    -0.3660 c5         1 2ZE      -0.070400
     16 CAJ         -3.1610    -0.5270    -0.9490 c5         1 2ZE      -0.055700
     17 CAI         -1.8980     0.0690    -1.6740 c5         1 2ZE      -0.061400
     18 CAE         -0.8110    -0.1120    -0.5610 c5         1 2ZE      -0.038000
     19 CAL         -1.1950     0.8150     0.6830 c6         1 2ZE      -0.062400
     20 CAR         -2.6460     0.5900     1.2460 c6         1 2ZE      -0.092400
     21 CAP         -3.7620     0.4040     0.1510 c6         1 2ZE       0.190000
     22 OAA         -4.1020     1.6780    -0.4050 oh         1 2ZE      -0.662000
     23 CAX         -5.0870    -0.1590     0.7760 c3         1 2ZE       0.129600
     24 OAD         -5.7330     0.8080     1.6270 oh         1 2ZE      -0.673000
     25 H1           5.6330    -0.5570     2.5210 ho         1 2ZE       0.439000
     26 H2           3.8970    -1.7830     1.5930 h1         1 2ZE       0.022200
     27 H3           3.3890    -0.2730     2.3470 h1         1 2ZE       0.022200
     28 H4           3.7100    -2.1200    -0.9860 hc         1 2ZE       0.038033
     29 H5           3.8880    -0.6620    -1.9710 hc         1 2ZE       0.038033
     30 H6           5.1000    -1.0640    -0.8160 hc         1 2ZE       0.038033
     31 H7           4.5510     1.4630    -0.2840 h1         1 2ZE       0.045700
     32 H8           3.4060     2.9850     0.9360 ho         1 2ZE       0.439000
     33 H9           2.8400     2.9550    -1.3230 hc         1 2ZE       0.041700
     34 H10          3.0570     1.4780    -2.2060 hc         1 2ZE       0.041700
     35 H11          0.8270     2.1950    -0.2380 hc         1 2ZE       0.045200
     36 H12          0.6080     2.0350    -1.9650 hc         1 2ZE       0.045200
     37 H13          2.0220    -0.3230    -2.7700 hc         1 2ZE       0.032700
     38 H14          1.0610    -1.6930    -2.2940 hc         1 2ZE       0.032700
     39 H15          0.3530    -0.2930    -3.1030 hc         1 2ZE       0.032700
     40 H16          1.4150    -0.0070     1.1560 hc         1 2ZE       0.060700
     41 H17          1.6190    -2.6820    -0.2970 hc         1 2ZE       0.036700
     42 H18          1.8520    -2.4080     1.4140 hc         1 2ZE       0.036700
     43 H19         -0.4200    -3.3140     0.9260 hc         1 2ZE       0.039200
     44 H20         -0.4910    -1.7600     1.7490 hc         1 2ZE       0.039200
     45 H21         -0.6910    -2.2970    -1.2070 hc         1 2ZE       0.044700
     46 H22         -2.8620    -2.7210    -1.0100 hc         1 2ZE       0.040200
     47 H23         -2.9820    -2.1260     0.6250 hc         1 2ZE       0.040200
     48 H24         -3.9710    -0.7120    -1.6640 hc         1 2ZE       0.058700
     49 H25         -1.7020    -0.5010    -2.5880 hc         1 2ZE       0.053200
     50 H26         -2.0240     1.1150    -1.9740 hc         1 2ZE       0.053200
     51 H27         -0.4960     0.7240     1.5190 hc         1 2ZE       0.044700
     52 H28         -1.1660     1.8650     0.3700 hc         1 2ZE       0.044700
     53 H29         -2.6280    -0.2840     1.9090 hc         1 2ZE       0.047700
     54 H30         -2.9100     1.4300     1.9040 hc         1 2ZE       0.047700
     55 H31         -4.8260     1.9900     0.1860 ho         1 2ZE       0.454000
     56 H32         -5.7630    -0.4500    -0.0400 h1         1 2ZE       0.029200
     57 H33         -4.8580    -1.0680     1.3470 h1         1 2ZE       0.029200
     58 H34         -6.5110     0.3630     2.0330 ho         1 2ZE       0.447000
@<TRIPOS>BOND
     1     1     2 1   
     2     1    25 1   
     3     2     3 1   
     4     2    26 1   
     5     2    27 1   
     6     3     4 1   
     7     3     5 1   
     8     3    11 1   
     9     4    28 1   
    10     4    29 1   
    11     4    30 1   
    12     5     6 1   
    13     5     7 1   
    14     5    31 1   
    15     6    32 1   
    16     7     8 1   
    17     7    33 1   
    18     7    34 1   
    19     8     9 1   
    20     8    35 1   
    21     8    36 1   
    22     9    10 1   
    23     9    11 1   
    24     9    18 1   
    25    10    37 1   
    26    10    38 1   
    27    10    39 1   
    28    11    12 1   
    29    11    40 1   
    30    12    13 1   
    31    12    41 1   
    32    12    42 1   
    33    13    14 1   
    34    13    43 1   
    35    13    44 1   
    36    14    15 1   
    37    14    18 1   
    38    14    45 1   
    39    15    16 1   
    40    15    46 1   
    41    15    47 1   
    42    16    17 1   
    43    16    21 1   
    44    16    48 1   
    45    17    18 1   
    46    17    49 1   
    47    17    50 1   
    48    18    19 1   
    49    19    20 1   
    50    19    51 1   
    51    19    52 1   
    52    20    21 1   
    53    20    53 1   
    54    20    54 1   
    55    21    22 1   
    56    21    23 1   
    57    22    55 1   
    58    23    24 1   
    59    23    56 1   
    60    23    57 1   
    61    24    58 1   
@<TRIPOS>SUBSTRUCTURE
     1 2ZE         1 TEMP              0 ****  ****    0 ROOT
