@<TRIPOS>MOLECULE
2ZE
   58    61     1     0     0
SMALL
abcg2


@<TRIPOS>ATOM
      1 OAC          5.0910    -0.1410     1.6020 oh         1 2ZE      -0.663000
      2 CAV          3.7610    -0.6090     1.5200 c3         1 2ZE       0.171600
      3 CAN          3.1420    -0.2250     0.1630 c6         1 2ZE      -0.025000
      4 CAW          3.8890    -1.0280    -0.9090 c3         1 2ZE      -0.087100
      5 CAT          3.3730     1.2800    -0.0900 c6         1 2ZE       0.184300
      6 OAB          3.0050     1.9910     1.0790 oh         1 2ZE      -0.662000
      7 CAU          2.5910     1.7920    -1.2940 c6         1 2ZE      -0.114400
      8 CAQ          1.0950     1.5400    -1.1540 c6         1 2ZE      -0.066400
      9 CAF          0.7580     0.0530    -0.9510 c6         1 2ZE      -0.006000
     10 CAS          1.0500    -0.6720    -2.2810 c3         1 2ZE      -0.087100
     11 CAH          1.6110    -0.5070     0.2370 c6         1 2ZE      -0.048700
     12 CAO          1.2640    -1.9700     0.5700 c6         1 2ZE      -0.071400
     13 CAM         -0.2300    -2.1970     0.8230 c6         1 2ZE      -0.062400
     14 CAG         -1.0080    -1.6480    -0.3540 c5         1 2ZE      -0.067700
     15 CAK         -2.5360    -1.8320    -0.4410 c5         1 2ZE      -0.070400
     16 CAJ         -3.0770    -0.4800    -0.9640 c5         1 2ZE      -0.055700
     17 CAI         -1.8330     0.1650    -1.6010 c5         1 2ZE      -0.061400
     18 CAE         -0.7500    -0.1440    -0.5570 c5         1 2ZE      -0.038000
     19 CAL         -1.1370     0.7100     0.6790 c6         1 2ZE      -0.062400
     20 CAR         -2.5220     0.4410     1.2660 c6         1 2ZE      -0.092400
     21 CAP         -3.6060     0.3840     0.1860 c6         1 2ZE       0.190000
     22 OAA         -3.8570     1.6770    -0.3450 oh         1 2ZE      -0.662000
     23 CAX         -4.9180    -0.1820     0.7220 c3         1 2ZE       0.129600
     24 OAD         -5.3790     0.6630     1.7560 oh         1 2ZE      -0.673000
     25 H1           5.4980    -0.5440     2.3730 ho         1 2ZE       0.439000
     26 H2           3.7440    -1.7010     1.6170 h1         1 2ZE       0.022200
     27 H3           3.1510    -0.2080     2.3400 h1         1 2ZE       0.022200
     28 H4           3.6780    -2.0950    -0.8240 hc         1 2ZE       0.038033
     29 H5           3.6410    -0.7300    -1.9230 hc         1 2ZE       0.038033
     30 H6           4.9650    -0.8960    -0.7940 hc         1 2ZE       0.038033
     31 H7           4.4430     1.4290    -0.2960 h1         1 2ZE       0.045700
     32 H8           3.0270     2.9310     0.8740 ho         1 2ZE       0.439000
     33 H9           2.7760     2.8670    -1.4060 hc         1 2ZE       0.041700
     34 H10          2.9890     1.3400    -2.2040 hc         1 2ZE       0.041700
     35 H11          0.7320     2.1320    -0.3130 hc         1 2ZE       0.045200
     36 H12          0.5700     1.9150    -2.0380 hc         1 2ZE       0.045200
     37 H13          1.9370    -0.2810    -2.7730 hc         1 2ZE       0.032700
     38 H14          1.2060    -1.7430    -2.1700 hc         1 2ZE       0.032700
     39 H15          0.2360    -0.5340    -2.9920 hc         1 2ZE       0.032700
     40 H16          1.2930     0.0670     1.1120 hc         1 2ZE       0.060700
     41 H17          1.5830    -2.6350    -0.2380 hc         1 2ZE       0.036700
     42 H18          1.8170    -2.2890     1.4540 hc         1 2ZE       0.036700
     43 H19         -0.4180    -3.2670     0.9550 hc         1 2ZE       0.039200
     44 H20         -0.5370    -1.7120     1.7550 hc         1 2ZE       0.039200
     45 H21         -0.6060    -2.1520    -1.2380 hc         1 2ZE       0.044700
     46 H22         -2.7770    -2.6310    -1.1440 hc         1 2ZE       0.040200
     47 H23         -2.9820    -2.1270     0.5100 hc         1 2ZE       0.040200
     48 H24         -3.8730    -0.6220    -1.7020 hc         1 2ZE       0.058700
     49 H25         -1.6330    -0.3350    -2.5510 hc         1 2ZE       0.053200
     50 H26         -1.9530     1.2280    -1.8140 hc         1 2ZE       0.053200
     51 H27         -0.4140     0.6140     1.4900 hc         1 2ZE       0.044700
     52 H28         -1.1040     1.7600     0.3800 hc         1 2ZE       0.044700
     53 H29         -2.5190    -0.4930     1.8340 hc         1 2ZE       0.047700
     54 H30         -2.7520     1.2210     1.9960 hc         1 2ZE       0.047700
     55 H31         -4.2470     2.2070     0.3590 ho         1 2ZE       0.454000
     56 H32         -5.6410    -0.2320    -0.1030 h1         1 2ZE       0.029200
     57 H33         -4.7730    -1.2060     1.0860 h1         1 2ZE       0.029200
     58 H34         -6.2670     0.3890     2.0000 ho         1 2ZE       0.447000
@<TRIPOS>BOND
     1     1     2 1   
     2     1    25 1   
     3     2     3 1   
     4     2    26 1   
     5     2    27 1   
     6     3     4 1   
     7     3     5 1   
     8     3    11 1   
     9     4    28 1   
    10     4    29 1   
    11     4    30 1   
    12     5     6 1   
    13     5     7 1   
    14     5    31 1   
    15     6    32 1   
    16     7     8 1   
    17     7    33 1   
    18     7    34 1   
    19     8     9 1   
    20     8    35 1   
    21     8    36 1   
    22     9    10 1   
    23     9    11 1   
    24     9    18 1   
    25    10    37 1   
    26    10    38 1   
    27    10    39 1   
    28    11    12 1   
    29    11    40 1   
    30    12    13 1   
    31    12    41 1   
    32    12    42 1   
    33    13    14 1   
    34    13    43 1   
    35    13    44 1   
    36    14    15 1   
    37    14    18 1   
    38    14    45 1   
    39    15    16 1   
    40    15    46 1   
    41    15    47 1   
    42    16    17 1   
    43    16    21 1   
    44    16    48 1   
    45    17    18 1   
    46    17    49 1   
    47    17    50 1   
    48    18    19 1   
    49    19    20 1   
    50    19    51 1   
    51    19    52 1   
    52    20    21 1   
    53    20    53 1   
    54    20    54 1   
    55    21    22 1   
    56    21    23 1   
    57    22    55 1   
    58    23    24 1   
    59    23    56 1   
    60    23    57 1   
    61    24    58 1   
@<TRIPOS>SUBSTRUCTURE
     1 2ZE         1 TEMP              0 ****  ****    0 ROOT
