@<TRIPOS>MOLECULE
2ZF
   66    65     1     0     0
SMALL
No Charge or Current Charge


@<TRIPOS>ATOM
      1 O1           5.1560    -0.2620     1.5660 o          1 2ZF      -0.564000
      2 C            5.0350    -0.5890     0.3970 c          1 2ZF       0.653100
      3 O2           5.9830    -1.1610    -0.4060 os         1 2ZF      -0.481100
      4 CT           7.3300    -1.4300     0.0490 c3         1 2ZF       0.227000
      5 C1           7.2940    -2.4550     1.2130 c3         1 2ZF      -0.105767
      6 C2           8.0310    -2.0530    -1.1790 c3         1 2ZF      -0.105767
      7 C3           8.0250    -0.0980     0.4340 c3         1 2ZF      -0.105767
      8 N            3.8850    -0.4720    -0.3290 ns         1 2ZF      -0.479900
      9 CA           2.6130     0.1020     0.1640 c3         1 2ZF       0.038700
     10 C4           1.4090    -0.7160    -0.3900 c          1 2ZF       0.591100
     11 O            1.5050    -1.5070    -1.3210 o          1 2ZF      -0.632100
     12 CB           2.4860     1.6080    -0.2010 c3         1 2ZF      -0.064400
     13 CG           3.5890     2.5200     0.4000 c3         1 2ZF      -0.209400
     14 CD           3.2950     3.9950     0.0750 c          1 2ZF       0.719000
     15 OE1          2.5930     4.6260     0.8500 o          1 2ZF      -0.741000
     16 OE2          3.7300     4.4530    -0.9700 o          1 2ZF      -0.741000
     17 N1           0.2050    -0.4880     0.2450 ns         1 2ZF      -0.493900
     18 CA1         -1.0730    -1.1590    -0.0820 c3         1 2ZF       0.030700
     19 C5          -2.2570    -0.2640     0.3890 c          1 2ZF       0.589100
     20 O3          -2.1520     0.5500     1.2980 o          1 2ZF      -0.613100
     21 CB1         -1.0960    -2.5750     0.5660 c3         1 2ZF      -0.085400
     22 CG1         -2.3220    -3.4750     0.2390 c3         1 2ZF      -0.061700
     23 CD1         -2.4660    -3.7630    -1.2750 c3         1 2ZF      -0.082600
     24 CD2         -2.2590    -4.7960     1.0390 c3         1 2ZF      -0.082600
     25 N2          -3.4370    -0.4270    -0.3090 ns         1 2ZF      -0.485900
     26 CA2         -4.7010     0.2990    -0.0470 c3         1 2ZF      -0.011300
     27 C6          -5.9110    -0.6660    -0.2160 c          1 2ZF       0.421100
     28 O4          -5.8060    -1.7230    -0.8510 o          1 2ZF      -0.561100
     29 CB2         -4.8410     1.5470    -0.9600 c3         1 2ZF      -0.138400
     30 CG2         -3.7880     2.6480    -0.7090 c3         1 2ZF       0.173300
     31 F1          -3.9500     3.6450    -1.6070 f          1 2ZF      -0.131500
     32 F2          -3.9620     3.1850     0.5200 f          1 2ZF      -0.131500
     33 CD3         -7.2940    -0.2150     0.4910 c          1 2ZF       0.652000
     34 OE11        -8.3480    -0.6970     0.0810 o          1 2ZF      -0.689000
     35 OE21        -7.2430     0.5870     1.4200 o          1 2ZF      -0.689000
     36 H11          6.6510    -3.3070     0.9610 hc         1 2ZF       0.044478
     37 H12          8.3010    -2.8390     1.4130 hc         1 2ZF       0.044478
     38 H13          6.9280    -2.0070     2.1430 hc         1 2ZF       0.044478
     39 H21          8.0260    -1.3570    -2.0260 hc         1 2ZF       0.044478
     40 H22          9.0740    -2.3000    -0.9490 hc         1 2ZF       0.044478
     41 H23          7.5240    -2.9750    -1.4910 hc         1 2ZF       0.044478
     42 H31          7.6420     0.3080     1.3760 hc         1 2ZF       0.044478
     43 H32          9.1030    -0.2530     0.5630 hc         1 2ZF       0.044478
     44 H33          7.8840     0.6560    -0.3500 hc         1 2ZF       0.044478
     45 H            3.9220    -0.8340    -1.2730 hn         1 2ZF       0.334500
     46 HA           2.5820     0.0010     1.2570 h1         1 2ZF       0.083700
     47 HB2          2.4880     1.7130    -1.2940 hc         1 2ZF       0.059200
     48 HB3          1.5110     1.9750     0.1420 hc         1 2ZF       0.059200
     49 HG2          3.5580     2.3560     1.4840 hc         1 2ZF       0.022200
     50 HG3          4.5320     2.2140    -0.0680 hc         1 2ZF       0.022200
     51 H1           0.2030     0.1920     0.9990 hn         1 2ZF       0.336500
     52 HA1         -1.1410    -1.2500    -1.1730 h1         1 2ZF       0.081700
     53 HB21        -0.1880    -3.1140     0.2660 hc         1 2ZF       0.046700
     54 HB31        -1.0290    -2.4530     1.6550 hc         1 2ZF       0.046700
     55 HG          -3.2310    -2.9570     0.5700 hc         1 2ZF       0.072700
     56 HD11        -3.3240    -4.4200    -1.4620 hc         1 2ZF       0.028200
     57 HD12        -2.6260    -2.8430    -1.8470 hc         1 2ZF       0.028200
     58 HD13        -1.5670    -4.2580    -1.6640 hc         1 2ZF       0.028200
     59 HD21        -2.2130    -4.5960     2.1160 hc         1 2ZF       0.028200
     60 HD22        -3.1490    -5.4080     0.8490 hc         1 2ZF       0.028200
     61 HD23        -1.3740    -5.3810     0.7600 hc         1 2ZF       0.028200
     62 H14         -3.4460    -1.1410    -1.0290 hn         1 2ZF       0.314500
     63 HA2         -4.7140     0.6250     1.0030 h1         1 2ZF       0.127700
     64 HB22        -4.7800     1.2300    -2.0090 hc         1 2ZF       0.075200
     65 HB1         -5.8370     1.9870    -0.8260 hc         1 2ZF       0.075200
     66 HG1         -2.7710     2.2510    -0.7950 h2         1 2ZF       0.062700
@<TRIPOS>BOND
     1     1     2 2   
     2     2     3 1   
     3     2     8 1   
     4     3     4 1   
     5     4     5 1   
     6     4     6 1   
     7     4     7 1   
     8     5    36 1   
     9     5    37 1   
    10     5    38 1   
    11     6    39 1   
    12     6    40 1   
    13     6    41 1   
    14     7    42 1   
    15     7    43 1   
    16     7    44 1   
    17     8     9 1   
    18     8    45 1   
    19     9    10 1   
    20     9    12 1   
    21     9    46 1   
    22    10    11 2   
    23    10    17 1   
    24    12    13 1   
    25    12    47 1   
    26    12    48 1   
    27    13    14 1   
    28    13    49 1   
    29    13    50 1   
    30    14    15 1   
    31    14    16 1   
    32    17    18 1   
    33    17    51 1   
    34    18    19 1   
    35    18    21 1   
    36    18    52 1   
    37    19    20 2   
    38    19    25 1   
    39    21    22 1   
    40    21    53 1   
    41    21    54 1   
    42    22    23 1   
    43    22    24 1   
    44    22    55 1   
    45    23    56 1   
    46    23    57 1   
    47    23    58 1   
    48    24    59 1   
    49    24    60 1   
    50    24    61 1   
    51    25    26 1   
    52    25    62 1   
    53    26    27 1   
    54    26    29 1   
    55    26    63 1   
    56    27    28 2   
    57    27    33 1   
    58    29    30 1   
    59    29    64 1   
    60    29    65 1   
    61    30    31 1   
    62    30    32 1   
    63    30    66 1   
    64    33    34 1   
    65    33    35 1   
@<TRIPOS>SUBSTRUCTURE
     1 2ZF         1 TEMP              0 ****  ****    0 ROOT
