@<TRIPOS>MOLECULE
2ZF
   66    65     1     0     0
SMALL
bcc


@<TRIPOS>ATOM
      1 O1           4.7000    -0.5110     1.4840 o          1 2ZF      -0.613000
      2 C            4.7200    -0.6100     0.2730 c          1 2ZF       0.769100
      3 O2           5.7390    -1.0760    -0.4510 os         1 2ZF      -0.457900
      4 CT           7.0160    -1.4430     0.1350 c3         1 2ZF       0.203800
      5 C1           6.8660    -2.6040     1.1110 c3         1 2ZF      -0.105767
      6 C2           7.8300    -1.8890    -1.0740 c3         1 2ZF      -0.105767
      7 C3           7.6770    -0.2360     0.7900 c3         1 2ZF      -0.105767
      8 N            3.7010    -0.2650    -0.5410 ns         1 2ZF      -0.546900
      9 CA           2.4550     0.2770    -0.0670 c3         1 2ZF       0.038700
     10 C4           1.3020    -0.5830    -0.5750 c          1 2ZF       0.658100
     11 O            1.3240    -1.0930    -1.6850 o          1 2ZF      -0.632100
     12 CB           2.2380     1.7260    -0.5230 c3         1 2ZF      -0.064400
     13 CG           3.2950     2.6740     0.0160 c3         1 2ZF      -0.209400
     14 CD           3.1090     4.1520    -0.3760 c          1 2ZF       0.929600
     15 OE1          2.1310     4.4460    -1.0900 o          1 2ZF      -0.846300
     16 OE2          3.9700     4.9420     0.0630 o          1 2ZF      -0.846300
     17 N1           0.2630    -0.6690     0.2690 ns         1 2ZF      -0.560900
     18 CA1         -0.9640    -1.3760    -0.0240 c3         1 2ZF       0.030700
     19 C5          -2.1150    -0.5510     0.5400 c          1 2ZF       0.656100
     20 O3          -2.1040    -0.1840     1.7050 o          1 2ZF      -0.613100
     21 CB1         -0.9580    -2.7720     0.6060 c3         1 2ZF      -0.085400
     22 CG1         -2.2230    -3.6030     0.3900 c3         1 2ZF      -0.061700
     23 CD1         -2.4970    -3.8790    -1.0860 c3         1 2ZF      -0.082600
     24 CD2         -2.1000    -4.9140     1.1610 c3         1 2ZF      -0.082600
     25 N2          -3.1040    -0.2840    -0.3250 ns         1 2ZF      -0.552900
     26 CA2         -4.3390     0.3690     0.0270 c3         1 2ZF      -0.011300
     27 C6          -5.5260    -0.5420    -0.2720 c          1 2ZF       0.421100
     28 O4          -5.3900    -1.5470    -0.9220 o          1 2ZF      -0.561100
     29 CB2         -4.5100     1.6880    -0.7390 c3         1 2ZF      -0.138400
     30 CG2         -3.3950     2.6620    -0.4670 c3         1 2ZF       0.415900
     31 F1          -3.6110     3.8140    -1.1670 f          1 2ZF      -0.252800
     32 F2          -3.3700     3.0130     0.8510 f          1 2ZF      -0.252800
     33 CD3         -6.9050    -0.1200     0.3080 c          1 2ZF       0.862600
     34 OE11        -7.8870    -0.6840    -0.1880 o          1 2ZF      -0.794300
     35 OE21        -6.8540     0.7290     1.2140 o          1 2ZF      -0.794300
     36 H11          6.3300    -3.4360     0.6520 hc         1 2ZF       0.044478
     37 H12          7.8570    -2.9640     1.3920 hc         1 2ZF       0.044478
     38 H13          6.3470    -2.3140     2.0210 hc         1 2ZF       0.044478
     39 H21          7.9250    -1.0880    -1.8090 hc         1 2ZF       0.044478
     40 H22          8.8340    -2.1730    -0.7600 hc         1 2ZF       0.044478
     41 H23          7.3760    -2.7520    -1.5640 hc         1 2ZF       0.044478
     42 H31          7.1620     0.0750     1.6960 hc         1 2ZF       0.044478
     43 H32          8.7020    -0.4920     1.0620 hc         1 2ZF       0.044478
     44 H33          7.7180     0.6100     0.1020 hc         1 2ZF       0.044478
     45 H            3.8140    -0.3790    -1.5370 hn         1 2ZF       0.334500
     46 HA           2.4800     0.2510     1.0240 h1         1 2ZF       0.083700
     47 HB2          2.2200     1.7580    -1.6160 hc         1 2ZF       0.059200
     48 HB3          1.2470     2.0460    -0.1910 hc         1 2ZF       0.059200
     49 HG2          3.3250     2.6080     1.1090 hc         1 2ZF       0.022200
     50 HG3          4.2880     2.3570    -0.3170 hc         1 2ZF       0.022200
     51 H1           0.3590    -0.2900     1.1990 hn         1 2ZF       0.336500
     52 HA1         -1.0450    -1.4570    -1.1090 h1         1 2ZF       0.081700
     53 HB21        -0.0980    -3.3130     0.1970 hc         1 2ZF       0.046700
     54 HB31        -0.7740    -2.6620     1.6780 hc         1 2ZF       0.046700
     55 HG          -3.0800    -3.0570     0.8000 hc         1 2ZF       0.072700
     56 HD11        -3.3500    -4.5490    -1.2000 hc         1 2ZF       0.028200
     57 HD12        -2.7290    -2.9750    -1.6490 hc         1 2ZF       0.028200
     58 HD13        -1.6350    -4.3560    -1.5590 hc         1 2ZF       0.028200
     59 HD21        -1.9280    -4.7380     2.2240 hc         1 2ZF       0.028200
     60 HD22        -3.0050    -5.5160     1.0650 hc         1 2ZF       0.028200
     61 HD23        -1.2650    -5.5110     0.7840 hc         1 2ZF       0.028200
     62 H14         -3.0320    -0.6520    -1.2610 hn         1 2ZF       0.314500
     63 HA2         -4.3300     0.5720     1.0970 h1         1 2ZF       0.127700
     64 HB22        -4.5290     1.4900    -1.8140 hc         1 2ZF       0.075200
     65 HB1         -5.4620     2.1480    -0.4670 hc         1 2ZF       0.075200
     66 HG1         -2.4070     2.2880    -0.7360 h2         1 2ZF       0.062700
@<TRIPOS>BOND
     1     1     2 2   
     2     2     3 1   
     3     2     8 1   
     4     3     4 1   
     5     4     5 1   
     6     4     6 1   
     7     4     7 1   
     8     5    36 1   
     9     5    37 1   
    10     5    38 1   
    11     6    39 1   
    12     6    40 1   
    13     6    41 1   
    14     7    42 1   
    15     7    43 1   
    16     7    44 1   
    17     8     9 1   
    18     8    45 1   
    19     9    10 1   
    20     9    12 1   
    21     9    46 1   
    22    10    11 2   
    23    10    17 1   
    24    12    13 1   
    25    12    47 1   
    26    12    48 1   
    27    13    14 1   
    28    13    49 1   
    29    13    50 1   
    30    14    15 1   
    31    14    16 1   
    32    17    18 1   
    33    17    51 1   
    34    18    19 1   
    35    18    21 1   
    36    18    52 1   
    37    19    20 2   
    38    19    25 1   
    39    21    22 1   
    40    21    53 1   
    41    21    54 1   
    42    22    23 1   
    43    22    24 1   
    44    22    55 1   
    45    23    56 1   
    46    23    57 1   
    47    23    58 1   
    48    24    59 1   
    49    24    60 1   
    50    24    61 1   
    51    25    26 1   
    52    25    62 1   
    53    26    27 1   
    54    26    29 1   
    55    26    63 1   
    56    27    28 2   
    57    27    33 1   
    58    29    30 1   
    59    29    64 1   
    60    29    65 1   
    61    30    31 1   
    62    30    32 1   
    63    30    66 1   
    64    33    34 1   
    65    33    35 1   
@<TRIPOS>SUBSTRUCTURE
     1 2ZF         1 TEMP              0 ****  ****    0 ROOT
