@<TRIPOS>MOLECULE
2ZI
   33    35     1     0     0
SMALL
No Charge or Current Charge


@<TRIPOS>ATOM
      1 N1           1.3860     1.5800    -0.2600 ns         1 2ZI      -0.426400
      2 C2           0.8590     0.3280    -0.0810 cc         1 2ZI       0.549500
      3 N3           1.5960    -0.7750     0.0600 nd         1 2ZI      -0.625100
      4 C4           2.9920    -0.5790     0.0470 ca         1 2ZI       0.183400
      5 C5           3.5850     0.6910    -0.1160 ca         1 2ZI      -0.196600
      6 C6           2.7030     1.8700    -0.2890 c          1 2ZI       0.577600
      7 O6           3.1070     3.0110    -0.4500 o          1 2ZI      -0.534000
      8 FAB         -5.4130    -0.5740     1.1890 f          1 2ZI      -0.111000
      9 FAC         -5.4540    -0.9510    -0.9520 f          1 2ZI      -0.111000
     10 FAD         -5.6000     1.0810    -0.2090 f          1 2ZI      -0.111000
     11 CAE         -1.2560    -0.9580    -0.4760 ca         1 2ZI      -0.083000
     12 CAF         -1.4200     1.3130     0.3620 ca         1 2ZI      -0.083000
     13 CAG         -2.6570    -1.0680    -0.4560 ca         1 2ZI      -0.066000
     14 CAH         -2.8210     1.2020     0.3830 ca         1 2ZI      -0.066000
     15 CAJ          3.8340    -1.7100     0.2050 ca         1 2ZI      -0.061300
     16 CAK          4.9870     0.8370    -0.1200 ca         1 2ZI      -0.046000
     17 CAP         -0.6130     0.2410    -0.0920 ca         1 2ZI      -0.116900
     18 CAQ         -3.4560     0.0160    -0.0390 ca         1 2ZI      -0.179300
     19 CAU         -4.9840    -0.1060    -0.0050 c3         1 2ZI       0.357300
     20 CAC          5.2350    -1.5550     0.1990 ca         1 2ZI      -0.080000
     21 CAD          5.8090    -0.2870     0.0380 ca         1 2ZI      -0.124000
     22 H1           0.7610     2.3560    -0.4030 hn         1 2ZI       0.332500
     23 HAK          5.4420     1.8180    -0.2470 ha         1 2ZI       0.137000
     24 HAE         -0.6700    -1.8150    -0.8040 ha         1 2ZI       0.134500
     25 HAG         -3.1170    -2.0050    -0.7640 ha         1 2ZI       0.136000
     26 HAF         -0.9710     2.2370     0.7200 ha         1 2ZI       0.134500
     27 HAH         -3.4110     2.0450     0.7390 ha         1 2ZI       0.136000
     28 HAI1         2.6320    -3.3930    -0.4790 hc         1 2ZI       0.047033
     29 HAI2         4.0290    -3.8720     0.4900 hc         1 2ZI       0.047033
     30 HAI3         2.6170    -3.1620     1.2790 hc         1 2ZI       0.047033
     31 HAC          5.8830    -2.4210     0.3210 ha         1 2ZI       0.117000
     32 HAD          6.8910    -0.1740     0.0340 ha         1 2ZI       0.121000
     33 CAI          3.2480    -3.1110     0.3830 c3         1 2ZI      -0.036800
@<TRIPOS>BOND
     1     1     2 1   
     2     1     6 1   
     3     1    22 1   
     4     2     3 2   
     5     2    17 1   
     6     3     4 1   
     7     4     5 ar  
     8     4    15 ar  
     9     5     6 1   
    10     5    16 ar  
    11     6     7 2   
    12     8    19 1   
    13     9    19 1   
    14    10    19 1   
    15    11    13 ar  
    16    11    17 ar  
    17    11    24 1   
    18    12    14 ar  
    19    12    17 ar  
    20    12    26 1   
    21    13    18 ar  
    22    13    25 1   
    23    14    18 ar  
    24    14    27 1   
    25    15    20 ar  
    26    15    33 1   
    27    16    21 ar  
    28    16    23 1   
    29    18    19 1   
    30    20    21 ar  
    31    20    31 1   
    32    21    32 1   
    33    28    33 1   
    34    29    33 1   
    35    30    33 1   
@<TRIPOS>SUBSTRUCTURE
     1 2ZI         1 TEMP              0 ****  ****    0 ROOT
