@<TRIPOS>MOLECULE
2ZI
   33    35     1     0     0
SMALL
bcc


@<TRIPOS>ATOM
      1 N1           1.4030     1.6320    -0.1970 ns         1 2ZI      -0.493400
      2 C2           0.8730     0.3840    -0.0490 cc         1 2ZI       0.549500
      3 N3           1.5940    -0.6720     0.0710 nd         1 2ZI      -0.625100
      4 C4           2.9590    -0.5390     0.0500 ca         1 2ZI       0.183400
      5 C5           3.5840     0.7120    -0.0790 ca         1 2ZI      -0.196600
      6 C6           2.7540     1.9020    -0.2140 c          1 2ZI       0.720100
      7 O6           3.1650     3.0410    -0.3450 o          1 2ZI      -0.609500
      8 FAB         -5.3260    -0.2040     1.2370 f          1 2ZI      -0.232300
      9 FAC         -5.2780    -1.3070    -0.6090 f          1 2ZI      -0.232300
     10 FAD         -5.4560     0.8370    -0.6370 f          1 2ZI      -0.232300
     11 CAE         -1.1730    -0.9480    -0.4230 ca         1 2ZI      -0.101000
     12 CAF         -1.4250     1.3100     0.3590 ca         1 2ZI      -0.101000
     13 CAG         -2.5480    -1.1030    -0.4310 ca         1 2ZI      -0.084000
     14 CAH         -2.8000     1.1560     0.3600 ca         1 2ZI      -0.084000
     15 CAJ          3.7430    -1.7070     0.1670 ca         1 2ZI      -0.061300
     16 CAK          4.9770     0.8160    -0.0960 ca         1 2ZI      -0.064000
     17 CAP         -0.5980     0.2600    -0.0370 ca         1 2ZI      -0.116900
     18 CAQ         -3.3650    -0.0490    -0.0420 ca         1 2ZI      -0.179300
     19 CAU         -4.8560    -0.1870    -0.0180 c3         1 2ZI       0.721200
     20 CAC          5.1180    -1.5720     0.1450 ca         1 2ZI      -0.098000
     21 CAD          5.7390    -0.3250     0.0150 ca         1 2ZI      -0.142000
     22 H1           0.7880     2.4220    -0.3450 hn         1 2ZI       0.332500
     23 HAK          5.4440     1.7860    -0.2000 ha         1 2ZI       0.155000
     24 HAE         -0.5400    -1.7700    -0.7290 ha         1 2ZI       0.152500
     25 HAG         -2.9650    -2.0480    -0.7490 ha         1 2ZI       0.154000
     26 HAF         -1.0160     2.2520     0.7000 ha         1 2ZI       0.152500
     27 HAH         -3.4170     1.9850     0.6800 ha         1 2ZI       0.154000
     28 HAI1         2.4050    -3.2520    -0.5090 hc         1 2ZI       0.047033
     29 HAI2         3.8320    -3.8390     0.3500 hc         1 2ZI       0.047033
     30 HAI3         2.4970    -3.0960     1.2310 hc         1 2ZI       0.047033
     31 HAC          5.7340    -2.4590     0.2310 ha         1 2ZI       0.135000
     32 HAD          6.8180    -0.2630     0.0030 ha         1 2ZI       0.139000
     33 CAI          3.0870    -3.0450     0.3160 c3         1 2ZI      -0.036800
@<TRIPOS>BOND
     1     1     2 1   
     2     1     6 1   
     3     1    22 1   
     4     2     3 2   
     5     2    17 1   
     6     3     4 1   
     7     4     5 ar  
     8     4    15 ar  
     9     5     6 1   
    10     5    16 ar  
    11     6     7 2   
    12     8    19 1   
    13     9    19 1   
    14    10    19 1   
    15    11    13 ar  
    16    11    17 ar  
    17    11    24 1   
    18    12    14 ar  
    19    12    17 ar  
    20    12    26 1   
    21    13    18 ar  
    22    13    25 1   
    23    14    18 ar  
    24    14    27 1   
    25    15    20 ar  
    26    15    33 1   
    27    16    21 ar  
    28    16    23 1   
    29    18    19 1   
    30    20    21 ar  
    31    20    31 1   
    32    21    32 1   
    33    28    33 1   
    34    29    33 1   
    35    30    33 1   
@<TRIPOS>SUBSTRUCTURE
     1 2ZI         1 TEMP              0 ****  ****    0 ROOT
