@<TRIPOS>MOLECULE
2ZL
   44    45     1     0     0
SMALL
No Charge or Current Charge


@<TRIPOS>ATOM
      1 C1           0.9620     2.5690    -0.8840 c          1 2ZL       0.598100
      2 C6          -0.8410     1.7360     0.6410 c3         1 2ZL      -0.123100
      3 C13          3.4500    -1.2370     0.1280 ca         1 2ZL      -0.100500
      4 C14          4.6750    -1.1640     0.8120 ca         1 2ZL      -0.110500
      5 C2           0.5080     1.3420    -0.0130 c3         1 2ZL       0.160500
      6 N3           1.9490     3.3730    -0.3120 ns         1 2ZL      -0.394400
      7 O4           0.4930     2.8170    -1.9920 o          1 2ZL      -0.562100
      8 O5           2.6380     4.3800    -1.0950 oh         1 2ZL      -0.417100
      9 N7           0.5000    -0.0050    -0.7090 n3         1 2ZL      -0.760500
     10 S8          -0.0550    -1.3470     0.2040 sy         1 2ZL       1.176600
     11 O9           0.2570    -2.5400    -0.5920 o          1 2ZL      -0.543500
     12 O10          0.4490    -1.2030     1.5740 o          1 2ZL      -0.543500
     13 C11          1.7280    -0.2720    -1.5180 c3         1 2ZL       0.248100
     14 C12          3.0560    -0.2050    -0.7520 ca         1 2ZL      -0.128300
     15 C15          5.5290    -0.0670     0.6150 ca         1 2ZL      -0.103000
     16 C16          5.1610     0.9510    -0.2790 ca         1 2ZL      -0.110500
     17 C17          3.9360     0.8780    -0.9640 ca         1 2ZL      -0.100500
     18 C18         -1.8440    -1.1730     0.1540 ca         1 2ZL      -0.292500
     19 C19         -2.6010    -1.2020     1.3430 ca         1 2ZL       0.005000
     20 C20         -4.0020    -1.0600     1.2930 ca         1 2ZL      -0.139300
     21 C21         -4.6320    -0.8950     0.0430 ca         1 2ZL       0.222000
     22 C22         -3.8790    -0.8740    -1.1410 ca         1 2ZL      -0.170000
     23 C23         -2.4840    -1.0150    -1.0900 ca         1 2ZL       0.024000
     24 F24         -5.9750    -0.7570    -0.0290 f          1 2ZL      -0.170000
     25 C25         -4.8230    -1.0840     2.5780 c3         1 2ZL      -0.041800
     26 H1          -1.0740     1.1050     1.5050 hc         1 2ZL       0.064367
     27 H2          -0.8000     2.7670     1.0120 hc         1 2ZL       0.064367
     28 H3          -1.6610     1.6740    -0.0840 hc         1 2ZL       0.064367
     29 H5           4.9650    -1.9620     1.4930 ha         1 2ZL       0.118000
     30 H6           1.2380     1.2850     0.8060 h1         1 2ZL       0.059700
     31 H7           2.4280     3.0550     0.5310 hn         1 2ZL       0.344500
     32 H8           2.5810     5.1910    -0.5360 ho         1 2ZL       0.442000
     33 H9           1.6710    -1.2420    -2.0310 h1         1 2ZL       0.086200
     34 H10          1.7800     0.4560    -2.3390 h1         1 2ZL       0.086200
     35 H11          6.4780    -0.0120     1.1440 ha         1 2ZL       0.115000
     36 H12          5.8270     1.7950    -0.4460 ha         1 2ZL       0.118000
     37 H13          3.6770     1.6660    -1.6670 ha         1 2ZL       0.120000
     38 H14         -2.1050    -1.3300     2.3040 ha         1 2ZL       0.140000
     39 H15         -4.3800    -0.7480    -2.0970 ha         1 2ZL       0.140000
     40 H16         -1.9020    -0.9940    -2.0110 ha         1 2ZL       0.144000
     41 H17         -5.3790    -0.1470     2.7060 hc         1 2ZL       0.050033
     42 H18         -5.5500    -1.9050     2.5640 hc         1 2ZL       0.050033
     43 H19         -4.1920    -1.2170     3.4650 hc         1 2ZL       0.050033
     44 H4           2.8140    -2.1040     0.2820 ha         1 2ZL       0.120000
@<TRIPOS>BOND
     1     1     5 1   
     2     1     6 1   
     3     1     7 2   
     4     2     5 1   
     5     2    26 1   
     6     2    27 1   
     7     2    28 1   
     8     3     4 ar  
     9     3    14 ar  
    10     3    44 1   
    11     4    15 ar  
    12     4    29 1   
    13     5     9 1   
    14     5    30 1   
    15     6     8 1   
    16     6    31 1   
    17     8    32 1   
    18     9    10 1   
    19     9    13 1   
    20    10    11 2   
    21    10    12 2   
    22    10    18 1   
    23    13    14 1   
    24    13    33 1   
    25    13    34 1   
    26    14    17 ar  
    27    15    16 ar  
    28    15    35 1   
    29    16    17 ar  
    30    16    36 1   
    31    17    37 1   
    32    18    19 ar  
    33    18    23 ar  
    34    19    20 ar  
    35    19    38 1   
    36    20    21 ar  
    37    20    25 1   
    38    21    22 ar  
    39    21    24 1   
    40    22    23 ar  
    41    22    39 1   
    42    23    40 1   
    43    25    41 1   
    44    25    42 1   
    45    25    43 1   
@<TRIPOS>SUBSTRUCTURE
     1 2ZL         1 TEMP              0 ****  ****    0 ROOT
