@<TRIPOS>MOLECULE
2ZL
   44    45     1     0     0
SMALL
abcg2


@<TRIPOS>ATOM
      1 C1           0.6820     2.2890    -0.8350 c          1 2ZL       0.598100
      2 C6          -0.4390     1.6050     1.2280 c3         1 2ZL      -0.123100
      3 C13          3.4960    -1.0740     0.4050 ca         1 2ZL      -0.100500
      4 C14          4.7600    -0.9730     0.9680 ca         1 2ZL      -0.110500
      5 C2           0.7070     1.2430     0.2840 c3         1 2ZL       0.160500
      6 N3           1.6570     3.2000    -0.7170 ns         1 2ZL      -0.394400
      7 O4          -0.1760     2.3040    -1.6950 o          1 2ZL      -0.562100
      8 O5           1.7850     4.1980    -1.6300 oh         1 2ZL      -0.417100
      9 N7           0.6520    -0.0720    -0.3590 n3         1 2ZL      -0.760500
     10 S8          -0.1040    -1.3490     0.3680 sy         1 2ZL       1.176600
     11 O9           0.1920    -2.5260    -0.4370 o          1 2ZL      -0.543500
     12 O10          0.1920    -1.4250     1.7940 o          1 2ZL      -0.543500
     13 C11          1.7570    -0.3490    -1.2830 c3         1 2ZL       0.248100
     14 C12          3.1250    -0.2500    -0.6550 ca         1 2ZL      -0.128300
     15 C15          5.6730    -0.0470     0.4770 ca         1 2ZL      -0.103000
     16 C16          5.3140     0.7760    -0.5800 ca         1 2ZL      -0.110500
     17 C17          4.0450     0.6750    -1.1380 ca         1 2ZL      -0.100500
     18 C18         -1.8220    -0.9770     0.1770 ca         1 2ZL      -0.292500
     19 C19         -2.6860    -1.2250     1.2340 ca         1 2ZL       0.005000
     20 C20         -4.0520    -1.0110     1.0940 ca         1 2ZL      -0.139300
     21 C21         -4.4880    -0.5480    -0.1410 ca         1 2ZL       0.222000
     22 C22         -3.6410    -0.3020    -1.2060 ca         1 2ZL      -0.170000
     23 C23         -2.2850    -0.5230    -1.0490 ca         1 2ZL       0.024000
     24 F24         -5.7920    -0.3200    -0.3050 f          1 2ZL      -0.170000
     25 C25         -5.0130    -1.2560     2.2170 c3         1 2ZL      -0.041800
     26 H1          -0.4960     0.9430     2.0870 hc         1 2ZL       0.064367
     27 H2          -0.2450     2.6060     1.6120 hc         1 2ZL       0.064367
     28 H3          -1.4010     1.6220     0.7210 hc         1 2ZL       0.064367
     29 H5           5.0340    -1.6210     1.7900 ha         1 2ZL       0.118000
     30 H6           1.6390     1.3180     0.8570 h1         1 2ZL       0.059700
     31 H7           2.4110     3.1210    -0.0510 hn         1 2ZL       0.344500
     32 H8           1.2920     4.9520    -1.2820 ho         1 2ZL       0.442000
     33 H9           1.6090    -1.3340    -1.7200 h1         1 2ZL       0.086200
     34 H10          1.6830     0.3540    -2.1150 h1         1 2ZL       0.086200
     35 H11          6.6590     0.0290     0.9160 ha         1 2ZL       0.115000
     36 H12          6.0160     1.5000    -0.9700 ha         1 2ZL       0.118000
     37 H13          3.7730     1.3190    -1.9660 ha         1 2ZL       0.120000
     38 H14         -2.3070    -1.5760     2.1840 ha         1 2ZL       0.140000
     39 H15         -4.0380     0.0640    -2.1430 ha         1 2ZL       0.140000
     40 H16         -1.6070    -0.3120    -1.8630 ha         1 2ZL       0.144000
     41 H17         -5.5040    -0.3340     2.5290 hc         1 2ZL       0.050033
     42 H18         -5.7940    -1.9600     1.9310 hc         1 2ZL       0.050033
     43 H19         -4.4940    -1.6660     3.0810 hc         1 2ZL       0.050033
     44 H4           2.8040    -1.8060     0.8020 ha         1 2ZL       0.120000
@<TRIPOS>BOND
     1     1     5 1   
     2     1     6 1   
     3     1     7 2   
     4     2     5 1   
     5     2    26 1   
     6     2    27 1   
     7     2    28 1   
     8     3     4 ar  
     9     3    14 ar  
    10     3    44 1   
    11     4    15 ar  
    12     4    29 1   
    13     5     9 1   
    14     5    30 1   
    15     6     8 1   
    16     6    31 1   
    17     8    32 1   
    18     9    10 1   
    19     9    13 1   
    20    10    11 2   
    21    10    12 2   
    22    10    18 1   
    23    13    14 1   
    24    13    33 1   
    25    13    34 1   
    26    14    17 ar  
    27    15    16 ar  
    28    15    35 1   
    29    16    17 ar  
    30    16    36 1   
    31    17    37 1   
    32    18    19 ar  
    33    18    23 ar  
    34    19    20 ar  
    35    19    38 1   
    36    20    21 ar  
    37    20    25 1   
    38    21    22 ar  
    39    21    24 1   
    40    22    23 ar  
    41    22    39 1   
    42    23    40 1   
    43    25    41 1   
    44    25    42 1   
    45    25    43 1   
@<TRIPOS>SUBSTRUCTURE
     1 2ZL         1 TEMP              0 ****  ****    0 ROOT
