@<TRIPOS>MOLECULE
2ZM
   17    18     1     0     0
SMALL
No Charge or Current Charge


@<TRIPOS>ATOM
      1 O1           2.9470     1.4000    -0.0560 o          1 2ZM      -0.402500
      2 N2           2.6070     0.2100    -0.0210 no         1 2ZM       0.697200
      3 O3           3.4100    -0.7320     0.0070 o          1 2ZM      -0.402500
      4 C4           1.1460    -0.1060    -0.0110 ca         1 2ZM      -0.207200
      5 C5           0.6990    -1.4600     0.0290 ca         1 2ZM      -0.039000
      6 C6          -0.6800    -1.7570     0.0380 ca         1 2ZM      -0.122000
      7 C7          -1.5750    -0.6840     0.0060 ca         1 2ZM      -0.049200
      8 N8          -2.9350    -0.6760     0.0050 na         1 2ZM      -0.309600
      9 C9          -3.3370     0.6580    -0.0340 cc         1 2ZM       0.421700
     10 N10         -2.2670     1.4820    -0.0590 nd         1 2ZM      -0.551100
     11 C11         -1.1740     0.6180    -0.0330 ca         1 2ZM       0.043400
     12 C12          0.1910     0.9470    -0.0430 ca         1 2ZM       0.034000
     13 H1           1.4130    -2.2820     0.0530 ha         1 2ZM       0.152000
     14 H2          -1.0320    -2.7860     0.0680 ha         1 2ZM       0.131000
     15 H3          -3.5530    -1.4770     0.0290 hn         1 2ZM       0.365000
     16 H4          -4.3800     0.9530    -0.0430 h5         1 2ZM       0.069800
     17 H6           0.4900     1.9920    -0.0740 ha         1 2ZM       0.168000
@<TRIPOS>BOND
     1     1     2 1   
     2     2     3 1   
     3     2     4 1   
     4     4     5 ar  
     5     4    12 ar  
     6     5     6 ar  
     7     5    13 1   
     8     6     7 ar  
     9     6    14 1   
    10     7     8 1   
    11     7    11 ar  
    12     8     9 1   
    13     8    15 1   
    14     9    10 2   
    15     9    16 1   
    16    10    11 1   
    17    11    12 ar  
    18    12    17 1   
@<TRIPOS>SUBSTRUCTURE
     1 2ZM         1 TEMP              0 ****  ****    0 ROOT
