@<TRIPOS>MOLECULE
2ZM
   17    18     1     0     0
SMALL
abcg2


@<TRIPOS>ATOM
      1 O1           2.8540     1.3580    -0.0480 o          1 2ZM      -0.402500
      2 N2           2.5120     0.1980    -0.0200 no         1 2ZM       0.697200
      3 O3           3.2930    -0.7270     0.0010 o          1 2ZM      -0.402500
      4 C4           1.0930    -0.1000    -0.0120 ca         1 2ZM      -0.207200
      5 C5           0.6890    -1.4440     0.0290 ca         1 2ZM      -0.039000
      6 C6          -0.6500    -1.7690     0.0380 ca         1 2ZM      -0.122000
      7 C7          -1.5580    -0.7150     0.0070 ca         1 2ZM      -0.049200
      8 N8          -2.9160    -0.6610     0.0050 na         1 2ZM      -0.309600
      9 C9          -3.2660     0.6510    -0.0350 cc         1 2ZM       0.421700
     10 N10         -2.2480     1.4590    -0.0590 nd         1 2ZM      -0.551100
     11 C11         -1.1500     0.6330    -0.0340 ca         1 2ZM       0.043400
     12 C12          0.1990     0.9560    -0.0440 ca         1 2ZM       0.034000
     13 H1           1.4240    -2.2350     0.0520 ha         1 2ZM       0.152000
     14 H2          -0.9690    -2.8010     0.0700 ha         1 2ZM       0.131000
     15 H3          -3.5550    -1.4400     0.0300 hn         1 2ZM       0.365000
     16 H4          -4.3030     0.9510    -0.0440 h5         1 2ZM       0.069800
     17 H6           0.5210     1.9870    -0.0750 ha         1 2ZM       0.168000
@<TRIPOS>BOND
     1     1     2 1   
     2     2     3 1   
     3     2     4 1   
     4     4     5 ar  
     5     4    12 ar  
     6     5     6 ar  
     7     5    13 1   
     8     6     7 ar  
     9     6    14 1   
    10     7     8 1   
    11     7    11 ar  
    12     8     9 1   
    13     8    15 1   
    14     9    10 2   
    15     9    16 1   
    16    10    11 1   
    17    11    12 ar  
    18    12    17 1   
@<TRIPOS>SUBSTRUCTURE
     1 2ZM         1 TEMP              0 ****  ****    0 ROOT
