@<TRIPOS>MOLECULE
2ZO
   25    24     1     0     0
SMALL
No Charge or Current Charge


@<TRIPOS>ATOM
      1 O           -3.8290    -0.7730     0.3450 o          1 2ZO      -0.461100
      2 C4          -3.2580     0.0410    -0.3710 c          1 2ZO       0.567900
      3 C3          -1.9800     0.7730     0.0500 c3         1 2ZO      -0.211400
      4 C2          -0.7170    -0.0870    -0.1990 c3         1 2ZO      -0.090400
      5 C1           0.5810     0.6420     0.2120 c3         1 2ZO       0.098600
      6 N            1.9110    -0.1040     0.0180 n4         1 2ZO      -0.497000
      7 C7           2.1270    -0.4450    -1.4650 c3         1 2ZO       0.074567
      8 C6           3.0570     0.8020     0.4890 c3         1 2ZO       0.074567
      9 C5           1.9290    -1.3970     0.8490 c3         1 2ZO       0.074567
     10 H1          -3.6350     0.2770    -1.3900 h4         1 2ZO      -0.005800
     11 H2          -1.8910     1.6830    -0.5550 hc         1 2ZO       0.081200
     12 H3          -2.0430     1.0210     1.1170 hc         1 2ZO       0.081200
     13 H4          -0.8030    -1.0240     0.3650 hc         1 2ZO       0.067200
     14 H5          -0.6660    -0.3540    -1.2620 hc         1 2ZO       0.067200
     15 H6           0.6460     1.5740    -0.3550 hx         1 2ZO       0.095700
     16 H7           0.5070     0.9050     1.2700 hx         1 2ZO       0.095700
     17 H8           2.1040     0.4750    -2.0530 hx         1 2ZO       0.098144
     18 H9           3.0960    -0.9330    -1.5860 hx         1 2ZO       0.098144
     19 H10          1.3360    -1.1170    -1.8020 hx         1 2ZO       0.098144
     20 H11          2.9160     1.0430     1.5450 hx         1 2ZO       0.098144
     21 H12          4.0080     0.2810     0.3560 hx         1 2ZO       0.098144
     22 H13          3.0570     1.7210    -0.1010 hx         1 2ZO       0.098144
     23 H14          1.1380    -2.0640     0.5000 hx         1 2ZO       0.098144
     24 H15          2.8980    -1.8880     0.7320 hx         1 2ZO       0.098144
     25 H16          1.7660    -1.1520     1.9010 hx         1 2ZO       0.098144
@<TRIPOS>BOND
     1     1     2 2   
     2     2     3 1   
     3     2    10 1   
     4     3     4 1   
     5     3    11 1   
     6     3    12 1   
     7     4     5 1   
     8     4    13 1   
     9     4    14 1   
    10     5     6 1   
    11     5    15 1   
    12     5    16 1   
    13     6     7 1   
    14     6     8 1   
    15     6     9 1   
    16     7    17 1   
    17     7    18 1   
    18     7    19 1   
    19     8    20 1   
    20     8    21 1   
    21     8    22 1   
    22     9    23 1   
    23     9    24 1   
    24     9    25 1   
@<TRIPOS>SUBSTRUCTURE
     1 2ZO         1 TEMP              0 ****  ****    0 ROOT
