@<TRIPOS>MOLECULE
2ZO
   25    24     1     0     0
SMALL
bcc


@<TRIPOS>ATOM
      1 O           -4.1800    -0.1090     0.1870 o          1 2ZO      -0.461100
      2 C4          -3.1580     0.0870    -0.4190 c          1 2ZO       0.567900
      3 C3          -1.9090     0.6670     0.1750 c3         1 2ZO      -0.211400
      4 C2          -0.6670    -0.1050    -0.2730 c3         1 2ZO      -0.090400
      5 C1           0.5670     0.6050     0.2510 c3         1 2ZO       0.126800
      6 N            1.8710    -0.1100     0.0180 n4         1 2ZO      -0.609800
      7 C7           2.0360    -0.4720    -1.4160 c3         1 2ZO       0.102767
      8 C6           2.9700     0.8180     0.4100 c3         1 2ZO       0.102767
      9 C5           1.9600    -1.3370     0.8570 c3         1 2ZO       0.102767
     10 H1          -3.0870    -0.1430    -1.4980 h4         1 2ZO      -0.005800
     11 H2          -1.8420     1.7010    -0.1830 hc         1 2ZO       0.081200
     12 H3          -1.9950     0.6990     1.2620 hc         1 2ZO       0.081200
     13 H4          -0.7310    -1.1300     0.0960 hc         1 2ZO       0.067200
     14 H5          -0.6480    -0.1500    -1.3630 hc         1 2ZO       0.067200
     15 H6           0.6650     1.5810    -0.2230 hx         1 2ZO       0.095700
     16 H7           0.4970     0.7600     1.3280 hx         1 2ZO       0.095700
     17 H8           1.8900     0.4140    -2.0280 hx         1 2ZO       0.098144
     18 H9           3.0410    -0.8580    -1.5640 hx         1 2ZO       0.098144
     19 H10          1.3160    -1.2370    -1.6890 hx         1 2ZO       0.098144
     20 H11          2.8250     1.1300     1.4410 hx         1 2ZO       0.098144
     21 H12          3.9220     0.3040     0.3120 hx         1 2ZO       0.098144
     22 H13          2.9530     1.6860    -0.2440 hx         1 2ZO       0.098144
     23 H14          1.1720    -2.0330     0.5850 hx         1 2ZO       0.098144
     24 H15          2.9250    -1.8070     0.6870 hx         1 2ZO       0.098144
     25 H16          1.8630    -1.0600     1.9030 hx         1 2ZO       0.098144
@<TRIPOS>BOND
     1     1     2 2   
     2     2     3 1   
     3     2    10 1   
     4     3     4 1   
     5     3    11 1   
     6     3    12 1   
     7     4     5 1   
     8     4    13 1   
     9     4    14 1   
    10     5     6 1   
    11     5    15 1   
    12     5    16 1   
    13     6     7 1   
    14     6     8 1   
    15     6     9 1   
    16     7    17 1   
    17     7    18 1   
    18     7    19 1   
    19     8    20 1   
    20     8    21 1   
    21     8    22 1   
    22     9    23 1   
    23     9    24 1   
    24     9    25 1   
@<TRIPOS>SUBSTRUCTURE
     1 2ZO         1 TEMP              0 ****  ****    0 ROOT
