@<TRIPOS>MOLECULE
2ZQ
   19    20     1     0     0
SMALL
No Charge or Current Charge


@<TRIPOS>ATOM
      1 C1           0.3350    -0.2060    -0.0170 ca         1 2ZQ       0.308000
      2 C2           1.4080     0.7270    -0.0240 ca         1 2ZQ      -0.092000
      3 C3          -0.9860     0.2970    -0.0340 ca         1 2ZQ      -0.145200
      4 C4           1.1620     2.1130    -0.0410 ca         1 2ZQ      -0.052000
      5 C5          -1.2290     1.6870    -0.0370 ca         1 2ZQ      -0.033000
      6 C6          -0.1560     2.5910    -0.0450 ca         1 2ZQ      -0.122000
      7 C7           1.8480    -1.9860     0.0420 ca         1 2ZQ       0.374900
      8 C8           2.9530    -1.1250     0.0260 ca         1 2ZQ      -0.161000
      9 N9           0.5700    -1.5410     0.0230 nb         1 2ZQ      -0.644000
     10 C10          2.7350     0.2590    -0.0060 ca         1 2ZQ      -0.054000
     11 N11         -2.1380    -0.6320    -0.0360 no         1 2ZQ       0.699200
     12 O12         -2.2620    -1.3920    -1.0070 o          1 2ZQ      -0.383500
     13 O13         -3.0450    -0.4090     0.7770 o          1 2ZQ      -0.383500
     14 H1           1.9890     2.8190    -0.0460 ha         1 2ZQ       0.125000
     15 H2          -2.2490     2.0680    -0.0440 ha         1 2ZQ       0.147000
     16 H3          -0.3460     3.6620    -0.0530 ha         1 2ZQ       0.131000
     17 H4           1.9870    -3.0660     0.0700 h4         1 2ZQ       0.030100
     18 H5           3.9610    -1.5310     0.0420 ha         1 2ZQ       0.132000
     19 H6           3.5760     0.9500    -0.0130 ha         1 2ZQ       0.125000
@<TRIPOS>BOND
     1     1     2 ar  
     2     1     3 ar  
     3     1     9 ar  
     4     2     4 ar  
     5     2    10 ar  
     6     3     5 ar  
     7     3    11 1   
     8     4     6 ar  
     9     4    14 1   
    10     5     6 ar  
    11     5    15 1   
    12     6    16 1   
    13     7     8 ar  
    14     7     9 ar  
    15     7    17 1   
    16     8    10 ar  
    17     8    18 1   
    18    10    19 1   
    19    11    12 1   
    20    11    13 1   
@<TRIPOS>SUBSTRUCTURE
     1 2ZQ         1 TEMP              0 ****  ****    0 ROOT
