@<TRIPOS>MOLECULE
2ZQ
   19    20     1     0     0
SMALL
abcg2


@<TRIPOS>ATOM
      1 C1           0.3500    -0.1980    -0.0350 ca         1 2ZQ       0.308000
      2 C2           1.4110     0.7410    -0.0370 ca         1 2ZQ      -0.092000
      3 C3          -0.9680     0.3240    -0.0390 ca         1 2ZQ      -0.145200
      4 C4           1.1360     2.1250    -0.0460 ca         1 2ZQ      -0.052000
      5 C5          -1.2230     1.6670    -0.0100 ca         1 2ZQ      -0.033000
      6 C6          -0.1540     2.5790    -0.0280 ca         1 2ZQ      -0.122000
      7 C7           1.7920    -1.9590     0.0420 ca         1 2ZQ       0.374900
      8 C8           2.9230    -1.1170     0.0170 ca         1 2ZQ      -0.161000
      9 N9           0.5580    -1.5290     0.0170 nb         1 2ZQ      -0.644000
     10 C10          2.7290     0.2330    -0.0180 ca         1 2ZQ      -0.054000
     11 N11         -2.1040    -0.5800    -0.0840 no         1 2ZQ       0.699200
     12 O12         -2.0910    -1.4640    -0.9040 o          1 2ZQ      -0.383500
     13 O13         -3.0110    -0.3730     0.6890 o          1 2ZQ      -0.383500
     14 H1           1.9630     2.8240    -0.0590 ha         1 2ZQ       0.125000
     15 H2          -2.2400     2.0340     0.0010 ha         1 2ZQ       0.147000
     16 H3          -0.3640     3.6390    -0.0290 ha         1 2ZQ       0.131000
     17 H4           1.9290    -3.0330     0.0880 h4         1 2ZQ       0.030100
     18 H5           3.9140    -1.5480     0.0350 ha         1 2ZQ       0.132000
     19 H6           3.5640     0.9210    -0.0250 ha         1 2ZQ       0.125000
@<TRIPOS>BOND
     1     1     2 ar  
     2     1     3 ar  
     3     1     9 ar  
     4     2     4 ar  
     5     2    10 ar  
     6     3     5 ar  
     7     3    11 1   
     8     4     6 ar  
     9     4    14 1   
    10     5     6 ar  
    11     5    15 1   
    12     6    16 1   
    13     7     8 ar  
    14     7     9 ar  
    15     7    17 1   
    16     8    10 ar  
    17     8    18 1   
    18    10    19 1   
    19    11    12 1   
    20    11    13 1   
@<TRIPOS>SUBSTRUCTURE
     1 2ZQ         1 TEMP              0 ****  ****    0 ROOT
