@<TRIPOS>MOLECULE
2ZS
   91    93     1     0     0
SMALL
No Charge or Current Charge


@<TRIPOS>ATOM
      1 O1          -8.4710     0.2720    -1.8100 os         1 2ZS      -0.445000
      2 C2          -8.4890     1.3960    -0.9130 c6         1 2ZS       0.143100
      3 C3          -7.3080     1.3150     0.0860 c6         1 2ZS       0.059000
      4 N4          -5.9820     0.9510    -0.5090 n          1 2ZS      -0.407800
      5 C5          -6.0160     0.1000    -1.7470 c6         1 2ZS       0.059000
      6 C6          -7.2860     0.2510    -2.6240 c6         1 2ZS       0.143100
      7 C           -4.8190     1.0710     0.2790 c          1 2ZS       0.662100
      8 O           -4.8260     1.6240     1.3680 o          1 2ZS      -0.638100
      9 N           -3.6730     0.5360    -0.2590 ns         1 2ZS      -0.504900
     10 CA          -2.3730     0.4240     0.4430 c3         1 2ZS       0.045700
     11 C1          -1.1980     0.7490    -0.5240 c          1 2ZS       0.602100
     12 O2          -1.3310     0.8190    -1.7400 o          1 2ZS      -0.598100
     13 CB          -2.2070    -0.9830     1.0770 c3         1 2ZS      -0.054100
     14 CG          -3.3690    -1.3830     1.9810 ca         1 2ZS      -0.082300
     15 CD1         -4.4200    -2.1780     1.4810 ca         1 2ZS      -0.100500
     16 CD2         -3.4070    -0.9490     3.3200 ca         1 2ZS      -0.100500
     17 CE1         -5.4980    -2.5320     2.3110 ca         1 2ZS      -0.106000
     18 CE2         -4.4840    -1.3050     4.1510 ca         1 2ZS      -0.106000
     19 CZ          -5.5310    -2.0960     3.6460 ca         1 2ZS      -0.105000
     20 N1           0.0250     0.9360     0.0880 ns         1 2ZS      -0.492900
     21 CA1          1.2910     1.2630    -0.6140 c3         1 2ZS       0.045700
     22 CB1          1.6810     2.7460    -0.4000 c3         1 2ZS       0.029600
     23 SG           0.4060     3.9070    -1.0780 ss         1 2ZS      -0.391000
     24 CS           1.1740     5.5250    -0.6190 c3         1 2ZS       0.030900
     25 C4           2.4310     0.3370    -0.1160 c          1 2ZS       0.590100
     26 O3           2.3710    -0.2850     0.9360 o          1 2ZS      -0.606100
     27 N2           3.5300     0.2660    -0.9480 ns         1 2ZS      -0.501900
     28 CA2          4.7480    -0.5140    -0.6810 c3         1 2ZS       0.092700
     29 CB2          4.9260    -1.6440    -1.7330 c3         1 2ZS      -0.085400
     30 CG1          3.7560    -2.6740    -1.8480 c6         1 2ZS      -0.058700
     31 CD11         3.9910    -3.6410    -3.0440 c6         1 2ZS      -0.073900
     32 CD21         3.5430    -3.4890    -0.5380 c6         1 2ZS      -0.073900
     33 CE11         2.8340    -4.6610    -3.1900 c6         1 2ZS      -0.071900
     34 CE21         2.3870    -4.5100    -0.6830 c6         1 2ZS      -0.071900
     35 CZ1          2.6230    -5.4590    -1.8820 c6         1 2ZS      -0.075400
     36 CH           5.9880     0.4200    -0.5710 c3         1 2ZS       0.101300
     37 OH           6.2110     1.1210    -1.8290 oh         1 2ZS      -0.651000
     38 C7           5.8290     1.4110     0.6170 c          1 2ZS       0.570100
     39 O11          5.7910     2.6280     0.4750 o          1 2ZS      -0.507000
     40 O21          5.8760     0.7700     1.8300 os         1 2ZS      -0.435100
     41 CM           5.7100     1.5380     3.0360 c3         1 2ZS       0.184300
     42 CM1          4.2170     1.9040     3.1880 c3         1 2ZS      -0.107600
     43 CM2          6.2150     0.6540     4.1910 c3         1 2ZS      -0.107600
     44 H21         -8.4220     2.3250    -1.4980 h1         1 2ZS       0.054450
     45 H22         -9.4420     1.4090    -0.3660 h1         1 2ZS       0.054450
     46 H31         -7.2240     2.2850     0.5980 h1         1 2ZS       0.054950
     47 H32         -7.5540     0.5690     0.8550 h1         1 2ZS       0.054950
     48 H51         -5.1480     0.3310    -2.3800 h1         1 2ZS       0.054950
     49 H52         -5.9270    -0.9530    -1.4440 h1         1 2ZS       0.054950
     50 H61         -7.3500    -0.5820    -3.3380 h1         1 2ZS       0.054450
     51 H62         -7.2320     1.1860    -3.2020 h1         1 2ZS       0.054450
     52 H           -3.7460     0.1510    -1.1900 hn         1 2ZS       0.323500
     53 HA          -2.3340     1.1760     1.2420 h1         1 2ZS       0.100700
     54 HB2         -2.0920    -1.7210     0.2730 hc         1 2ZS       0.059200
     55 HB3         -1.2710    -1.0170     1.6470 hc         1 2ZS       0.059200
     56 HD1         -4.4060    -2.5160     0.4480 ha         1 2ZS       0.108500
     57 HD2         -2.6050    -0.3310     3.7170 ha         1 2ZS       0.108500
     58 HE1         -6.3080    -3.1430     1.9180 ha         1 2ZS       0.112000
     59 HE2         -4.5090    -0.9660     5.1840 ha         1 2ZS       0.112000
     60 HZ          -6.3650    -2.3700     4.2880 ha         1 2ZS       0.112000
     61 H1           0.0580     0.8170     1.0940 hn         1 2ZS       0.336500
     62 HA1          1.1740     1.0770    -1.6890 h1         1 2ZS       0.098700
     63 HB21         1.8070     2.9410     0.6730 h1         1 2ZS       0.071700
     64 HB31         2.6390     2.9520    -0.8960 h1         1 2ZS       0.071700
     65 HCS1         0.5310     6.3490    -0.9560 h1         1 2ZS       0.061033
     66 HCS2         1.2930     5.5860     0.4710 h1         1 2ZS       0.061033
     67 HCS3         2.1580     5.6200    -1.0950 h1         1 2ZS       0.061033
     68 HN1          3.4970     0.8050    -1.8060 hn         1 2ZS       0.324500
     69 HA2          4.6450    -1.0010     0.2990 h1         1 2ZS       0.099700
     70 HB1          5.0810    -1.1750    -2.7120 hc         1 2ZS       0.055200
     71 HB22         5.8570    -2.1800    -1.5090 hc         1 2ZS       0.055200
     72 HG           2.8420    -2.1000    -2.0550 hc         1 2ZS       0.046700
     73 HD11         4.0900    -3.0680    -3.9760 hc         1 2ZS       0.041200
     74 HD12         4.9390    -4.1800    -2.9080 hc         1 2ZS       0.041200
     75 HD21         4.4690    -4.0170    -0.2730 hc         1 2ZS       0.041200
     76 HD22         3.3170    -2.8190     0.3010 hc         1 2ZS       0.041200
     77 HE11         1.9070    -4.1330    -3.4560 hc         1 2ZS       0.039200
     78 HE12         3.0480    -5.3510    -4.0180 hc         1 2ZS       0.039200
     79 HE21         2.2890    -5.0940     0.2410 hc         1 2ZS       0.039200
     80 HE22         1.4370    -3.9740    -0.8160 hc         1 2ZS       0.039200
     81 HZ1          1.7680    -6.1400    -1.9930 hc         1 2ZS       0.038200
     82 HZ2          3.5020    -6.0900    -1.6870 hc         1 2ZS       0.038200
     83 HC           6.8600    -0.2020    -0.3260 h1         1 2ZS       0.094700
     84 HH           6.2990     2.0780    -1.6070 ho         1 2ZS       0.471000
     85 HM           6.3160     2.4540     3.0100 h1         1 2ZS       0.060700
     86 HM11         3.5930     1.0020     3.1850 hc         1 2ZS       0.051033
     87 HM12         4.0490     2.4320     4.1340 hc         1 2ZS       0.051033
     88 HM13         3.8820     2.5600     2.3770 hc         1 2ZS       0.051033
     89 HM21         7.2730     0.4050     4.0480 hc         1 2ZS       0.051033
     90 HM22         6.1160     1.1790     5.1480 hc         1 2ZS       0.051033
     91 HM23         5.6430    -0.2790     4.2480 hc         1 2ZS       0.051033
@<TRIPOS>BOND
     1     1     2 1   
     2     1     6 1   
     3     2     3 1   
     4     2    44 1   
     5     2    45 1   
     6     3     4 1   
     7     3    46 1   
     8     3    47 1   
     9     4     5 1   
    10     4     7 1   
    11     5     6 1   
    12     5    48 1   
    13     5    49 1   
    14     6    50 1   
    15     6    51 1   
    16     7     8 2   
    17     7     9 1   
    18     9    10 1   
    19     9    52 1   
    20    10    11 1   
    21    10    13 1   
    22    10    53 1   
    23    11    12 2   
    24    11    20 1   
    25    13    14 1   
    26    13    54 1   
    27    13    55 1   
    28    14    15 ar  
    29    14    16 ar  
    30    15    17 ar  
    31    15    56 1   
    32    16    18 ar  
    33    16    57 1   
    34    17    19 ar  
    35    17    58 1   
    36    18    19 ar  
    37    18    59 1   
    38    19    60 1   
    39    20    21 1   
    40    20    61 1   
    41    21    22 1   
    42    21    25 1   
    43    21    62 1   
    44    22    23 1   
    45    22    63 1   
    46    22    64 1   
    47    23    24 1   
    48    24    65 1   
    49    24    66 1   
    50    24    67 1   
    51    25    26 2   
    52    25    27 1   
    53    27    28 1   
    54    27    68 1   
    55    28    29 1   
    56    28    36 1   
    57    28    69 1   
    58    29    30 1   
    59    29    70 1   
    60    29    71 1   
    61    30    31 1   
    62    30    32 1   
    63    30    72 1   
    64    31    33 1   
    65    31    73 1   
    66    31    74 1   
    67    32    34 1   
    68    32    75 1   
    69    32    76 1   
    70    33    35 1   
    71    33    77 1   
    72    33    78 1   
    73    34    35 1   
    74    34    79 1   
    75    34    80 1   
    76    35    81 1   
    77    35    82 1   
    78    36    37 1   
    79    36    38 1   
    80    36    83 1   
    81    37    84 1   
    82    38    39 2   
    83    38    40 1   
    84    40    41 1   
    85    41    42 1   
    86    41    43 1   
    87    41    85 1   
    88    42    86 1   
    89    42    87 1   
    90    42    88 1   
    91    43    89 1   
    92    43    90 1   
    93    43    91 1   
@<TRIPOS>SUBSTRUCTURE
     1 2ZS         1 TEMP              0 ****  ****    0 ROOT
