@<TRIPOS>MOLECULE
2ZS
   91    93     1     0     0
SMALL
bcc


@<TRIPOS>ATOM
      1 O1          -8.3380     1.5690    -1.1980 os         1 2ZS      -0.398600
      2 C2          -7.9440     2.1820     0.0090 c6         1 2ZS       0.119900
      3 C3          -6.8700     1.3830     0.7210 c6         1 2ZS       0.059000
      4 N4          -5.7340     1.1720    -0.1630 n          1 2ZS      -0.474800
      5 C5          -6.1190     0.6130    -1.4480 c6         1 2ZS       0.059000
      6 C6          -7.2360     1.4390    -2.0620 c6         1 2ZS       0.119900
      7 C           -4.5100     0.9650     0.4210 c          1 2ZS       0.796100
      8 O           -4.3200     1.1850     1.6110 o          1 2ZS      -0.638100
      9 N           -3.5020     0.5580    -0.3990 ns         1 2ZS      -0.571900
     10 CA          -2.2490     0.0870     0.1170 c3         1 2ZS       0.045700
     11 C1          -1.1050     0.6290    -0.7290 c          1 2ZS       0.669100
     12 O2          -1.2210     0.8020    -1.9310 o          1 2ZS      -0.598100
     13 CB          -2.1800    -1.4580     0.1110 c3         1 2ZS      -0.054100
     14 CG          -3.2930    -2.0450     0.9280 ca         1 2ZS      -0.082300
     15 CD1         -4.5030    -2.3940     0.3350 ca         1 2ZS      -0.118500
     16 CD2         -3.1580    -2.1890     2.3060 ca         1 2ZS      -0.118500
     17 CE1         -5.5600    -2.8670     1.1030 ca         1 2ZS      -0.124000
     18 CE2         -4.2080    -2.6670     3.0760 ca         1 2ZS      -0.124000
     19 CZ          -5.4150    -3.0040     2.4770 ca         1 2ZS      -0.123000
     20 N1           0.0340     0.8300    -0.0480 ns         1 2ZS      -0.559900
     21 CA1          1.2800     1.2160    -0.6520 c3         1 2ZS       0.045700
     22 CB1          1.6100     2.6900    -0.4010 c3         1 2ZS      -0.018300
     23 SG           0.3710     3.7550    -1.1850 ss         1 2ZS      -0.295200
     24 CS           0.9810     5.3560    -0.6130 c3         1 2ZS      -0.017000
     25 C4           2.4010     0.3670    -0.0510 c          1 2ZS       0.657100
     26 O3           2.3530     0.0090     1.1140 o          1 2ZS      -0.606100
     27 N2           3.4180     0.1180    -0.8880 ns         1 2ZS      -0.568900
     28 CA2          4.6200    -0.6080    -0.5330 c3         1 2ZS       0.092700
     29 CB2          4.8020    -1.8430    -1.4140 c3         1 2ZS      -0.085400
     30 CG1          3.6420    -2.8360    -1.3750 c6         1 2ZS      -0.058700
     31 CD11         3.8900    -3.9740    -2.3680 c6         1 2ZS      -0.073900
     32 CD21         3.3870    -3.4050     0.0210 c6         1 2ZS      -0.073900
     33 CE11         2.7530    -4.9900    -2.3720 c6         1 2ZS      -0.071900
     34 CE21         2.2480    -4.4200     0.0230 c6         1 2ZS      -0.071900
     35 CZ1          2.4980    -5.5450    -0.9760 c6         1 2ZS      -0.075400
     36 CH           5.8370     0.3320    -0.6400 c3         1 2ZS       0.078100
     37 OH           6.0190     0.7930    -1.9460 oh         1 2ZS      -0.588800
     38 C7           5.6760     1.5100     0.3090 c          1 2ZS       0.619100
     39 O11          5.5130     2.6390    -0.0890 o          1 2ZS      -0.556000
     40 O21          5.7330     1.1460     1.5680 os         1 2ZS      -0.411900
     41 CM           5.6270     2.1480     2.6130 c3         1 2ZS       0.161100
     42 CM1          4.1750     2.5130     2.8500 c3         1 2ZS      -0.107600
     43 CM2          6.2790     1.5420     3.8370 c3         1 2ZS      -0.107600
     44 H21         -7.5770     3.2000    -0.1790 h1         1 2ZS       0.054450
     45 H22         -8.8270     2.2540     0.6460 h1         1 2ZS       0.054450
     46 H31         -6.5540     1.9280     1.6070 h1         1 2ZS       0.054950
     47 H32         -7.2790     0.4190     1.0510 h1         1 2ZS       0.054950
     48 H51         -5.2970     0.6310    -2.1610 h1         1 2ZS       0.054950
     49 H52         -6.4370    -0.4320    -1.3350 h1         1 2ZS       0.054950
     50 H61         -7.5830     0.9530    -2.9740 h1         1 2ZS       0.054450
     51 H62         -6.8400     2.4280    -2.3330 h1         1 2ZS       0.054450
     52 H           -3.6700     0.3650    -1.3710 hn         1 2ZS       0.323500
     53 HA          -2.1500     0.4380     1.1430 h1         1 2ZS       0.100700
     54 HB2         -2.2410    -1.8070    -0.9230 hc         1 2ZS       0.059200
     55 HB3         -1.2090    -1.7730     0.5000 hc         1 2ZS       0.059200
     56 HD1         -4.6230    -2.2970    -0.7380 ha         1 2ZS       0.126500
     57 HD2         -2.2220    -1.9200     2.7830 ha         1 2ZS       0.126500
     58 HE1         -6.4950    -3.1340     0.6270 ha         1 2ZS       0.130000
     59 HE2         -4.0850    -2.7760     4.1460 ha         1 2ZS       0.130000
     60 HZ          -6.2370    -3.3760     3.0750 ha         1 2ZS       0.130000
     61 H1           0.0380     0.6980     0.9530 hn         1 2ZS       0.336500
     62 HA1          1.2070     1.0400    -1.7270 h1         1 2ZS       0.098700
     63 HB21         1.6250     2.8840     0.6750 h1         1 2ZS       0.071700
     64 HB31         2.5980     2.9230    -0.8030 h1         1 2ZS       0.071700
     65 HCS1         0.3150     6.1200    -1.0110 h1         1 2ZS       0.061033
     66 HCS2         0.9670     5.4160     0.4750 h1         1 2ZS       0.061033
     67 HCS3         1.9890     5.5500    -0.9740 h1         1 2ZS       0.061033
     68 HN1          3.3190     0.3960    -1.8530 hn         1 2ZS       0.324500
     69 HA2          4.5230    -0.9160     0.5070 h1         1 2ZS       0.099700
     70 HB1          4.9660    -1.5280    -2.4490 hc         1 2ZS       0.055200
     71 HB22         5.7210    -2.3460    -1.0960 hc         1 2ZS       0.055200
     72 HG           2.7320    -2.3140    -1.7000 hc         1 2ZS       0.046700
     73 HD11         4.0320    -3.5620    -3.3720 hc         1 2ZS       0.041200
     74 HD12         4.8290    -4.4770    -2.1060 hc         1 2ZS       0.041200
     75 HD21         4.3040    -3.8890     0.3790 hc         1 2ZS       0.041200
     76 HD22         3.1620    -2.6060     0.7310 hc         1 2ZS       0.041200
     77 HE11         1.8410    -4.5080    -2.7400 hc         1 2ZS       0.039200
     78 HE12         2.9770    -5.8010    -3.0700 hc         1 2ZS       0.039200
     79 HE21         2.1140    -4.8280     1.0280 hc         1 2ZS       0.039200
     80 HE22         1.3110    -3.9130    -0.2310 hc         1 2ZS       0.039200
     81 HZ1          1.6510    -6.2360    -0.9890 hc         1 2ZS       0.038200
     82 HZ2          3.3690    -6.1270    -0.6530 hc         1 2ZS       0.038200
     83 HC           6.7240    -0.2340    -0.3350 h1         1 2ZS       0.094700
     84 HH           5.6960     1.7020    -1.9960 ho         1 2ZS       0.432000
     85 HM           6.1870     3.0320     2.2980 h1         1 2ZS       0.060700
     86 HM11         3.5960     1.6410     3.1540 hc         1 2ZS       0.051033
     87 HM12         4.1180     3.2530     3.6480 hc         1 2ZS       0.051033
     88 HM13         3.7110     2.9470     1.9660 hc         1 2ZS       0.051033
     89 HM21         7.3170     1.2720     3.6460 hc         1 2ZS       0.051033
     90 HM22         6.2680     2.2670     4.6500 hc         1 2ZS       0.051033
     91 HM23         5.7420     0.6530     4.1710 hc         1 2ZS       0.051033
@<TRIPOS>BOND
     1     1     2 1   
     2     1     6 1   
     3     2     3 1   
     4     2    44 1   
     5     2    45 1   
     6     3     4 1   
     7     3    46 1   
     8     3    47 1   
     9     4     5 1   
    10     4     7 1   
    11     5     6 1   
    12     5    48 1   
    13     5    49 1   
    14     6    50 1   
    15     6    51 1   
    16     7     8 2   
    17     7     9 1   
    18     9    10 1   
    19     9    52 1   
    20    10    11 1   
    21    10    13 1   
    22    10    53 1   
    23    11    12 2   
    24    11    20 1   
    25    13    14 1   
    26    13    54 1   
    27    13    55 1   
    28    14    15 ar  
    29    14    16 ar  
    30    15    17 ar  
    31    15    56 1   
    32    16    18 ar  
    33    16    57 1   
    34    17    19 ar  
    35    17    58 1   
    36    18    19 ar  
    37    18    59 1   
    38    19    60 1   
    39    20    21 1   
    40    20    61 1   
    41    21    22 1   
    42    21    25 1   
    43    21    62 1   
    44    22    23 1   
    45    22    63 1   
    46    22    64 1   
    47    23    24 1   
    48    24    65 1   
    49    24    66 1   
    50    24    67 1   
    51    25    26 2   
    52    25    27 1   
    53    27    28 1   
    54    27    68 1   
    55    28    29 1   
    56    28    36 1   
    57    28    69 1   
    58    29    30 1   
    59    29    70 1   
    60    29    71 1   
    61    30    31 1   
    62    30    32 1   
    63    30    72 1   
    64    31    33 1   
    65    31    73 1   
    66    31    74 1   
    67    32    34 1   
    68    32    75 1   
    69    32    76 1   
    70    33    35 1   
    71    33    77 1   
    72    33    78 1   
    73    34    35 1   
    74    34    79 1   
    75    34    80 1   
    76    35    81 1   
    77    35    82 1   
    78    36    37 1   
    79    36    38 1   
    80    36    83 1   
    81    37    84 1   
    82    38    39 2   
    83    38    40 1   
    84    40    41 1   
    85    41    42 1   
    86    41    43 1   
    87    41    85 1   
    88    42    86 1   
    89    42    87 1   
    90    42    88 1   
    91    43    89 1   
    92    43    90 1   
    93    43    91 1   
@<TRIPOS>SUBSTRUCTURE
     1 2ZS         1 TEMP              0 ****  ****    0 ROOT
