@<TRIPOS>MOLECULE
2ZT
   36    39     1     0     0
SMALL
bcc


@<TRIPOS>ATOM
      1 C1           5.1650     1.2530     0.7490 ca         1 2ZT      -0.163300
      2 C2           6.4380     0.7510     0.8130 ca         1 2ZT      -0.121000
      3 C3           6.7170    -0.5570     0.3640 ca         1 2ZT      -0.122000
      4 C4           5.7160    -1.3430    -0.1400 ca         1 2ZT      -0.110000
      5 C5           4.3940    -0.8520    -0.2120 ca         1 2ZT      -0.142300
      6 C6           3.3140    -1.6120    -0.7130 ca         1 2ZT      -0.083000
      7 C7           2.0660    -1.0650    -0.7460 ca         1 2ZT      -0.222300
      8 C8           1.8880     0.2590    -0.2750 ca         1 2ZT       0.425600
      9 C9           0.5330     0.9060    -0.3370 c3         1 2ZT       0.086100
     10 O10         -0.4210    -0.0350     0.1160 os         1 2ZT      -0.320900
     11 C11         -1.7320     0.2590     0.0330 ca         1 2ZT       0.151100
     12 C12         -2.6120    -0.7230     0.4280 ca         1 2ZT      -0.218300
     13 C13         -4.0000    -0.5030     0.3640 ca         1 2ZT       0.434600
     14 N14         -4.8320    -1.4980     0.7660 nb         1 2ZT      -0.666000
     15 C15         -6.1200    -1.2870     0.7050 ca         1 2ZT       0.427200
     16 C16         -6.7090    -0.0900     0.2430 ca         1 2ZT      -0.263300
     17 C17         -5.8890     0.9240    -0.1640 ca         1 2ZT      -0.065000
     18 C18         -4.4920     0.7380    -0.1150 ca         1 2ZT      -0.182300
     19 C19         -3.5670     1.7240    -0.5120 ca         1 2ZT      -0.072000
     20 C20         -2.2190     1.5000    -0.4420 ca         1 2ZT      -0.198000
     21 N21          2.8650     0.9870     0.1950 nb         1 2ZT      -0.664000
     22 C22          4.1140     0.4620     0.2350 ca         1 2ZT       0.401600
     23 H1           4.9380     2.2550     1.0900 ha         1 2ZT       0.149000
     24 H2           7.2400     1.3590     1.2080 ha         1 2ZT       0.135000
     25 H3           7.7290    -0.9370     0.4220 ha         1 2ZT       0.134000
     26 H4           5.9250    -2.3470    -0.4900 ha         1 2ZT       0.134000
     27 H5           3.4890    -2.6200    -1.0690 ha         1 2ZT       0.139000
     28 H6           1.2260    -1.6270    -1.1290 ha         1 2ZT       0.154000
     29 H7           0.5320     1.8110     0.2780 h1         1 2ZT       0.056700
     30 H8           0.3260     1.2000    -1.3730 h1         1 2ZT       0.056700
     31 H9          -2.2430    -1.6790     0.7780 ha         1 2ZT       0.164000
     32 H10         -6.7590    -2.0980     1.0380 h4         1 2ZT       0.018100
     33 H11         -7.7850     0.0080     0.2210 ha         1 2ZT       0.142000
     34 H12         -6.2930     1.8640    -0.5210 ha         1 2ZT       0.135000
     35 H13         -3.9320     2.6740    -0.8820 ha         1 2ZT       0.133000
     36 H14         -1.5400     2.2810    -0.7570 ha         1 2ZT       0.138000
@<TRIPOS>BOND
     1     1     2 ar  
     2     1    22 ar  
     3     1    23 1   
     4     2     3 ar  
     5     2    24 1   
     6     3     4 ar  
     7     3    25 1   
     8     4     5 ar  
     9     4    26 1   
    10     5     6 ar  
    11     5    22 ar  
    12     6     7 ar  
    13     6    27 1   
    14     7     8 ar  
    15     7    28 1   
    16     8     9 1   
    17     8    21 ar  
    18     9    10 1   
    19     9    29 1   
    20     9    30 1   
    21    10    11 1   
    22    11    12 ar  
    23    11    20 ar  
    24    12    13 ar  
    25    12    31 1   
    26    13    14 ar  
    27    13    18 ar  
    28    14    15 ar  
    29    15    16 ar  
    30    15    32 1   
    31    16    17 ar  
    32    16    33 1   
    33    17    18 ar  
    34    17    34 1   
    35    18    19 ar  
    36    19    20 ar  
    37    19    35 1   
    38    20    36 1   
    39    21    22 ar  
@<TRIPOS>SUBSTRUCTURE
     1 2ZT         1 TEMP              0 ****  ****    0 ROOT
