@<TRIPOS>MOLECULE
2ZT
   36    39     1     0     0
SMALL
No Charge or Current Charge


@<TRIPOS>ATOM
      1 C1           5.0750     1.1570     1.0450 ca         1 2ZT      -0.080000
      2 C2           6.3810     0.6590     1.2070 ca         1 2ZT      -0.103000
      3 C3           6.7410    -0.5690     0.6300 ca         1 2ZT      -0.104000
      4 C4           5.7960    -1.2990    -0.1080 ca         1 2ZT      -0.092000
      5 C5           4.4890    -0.8000    -0.2690 ca         1 2ZT      -0.077000
      6 C6           3.5410    -1.5290    -1.0080 ca         1 2ZT      -0.065000
      7 C7           2.2500    -0.9970    -1.1440 ca         1 2ZT      -0.139000
      8 C8           1.9460     0.2380    -0.5420 ca         1 2ZT       0.360300
      9 C9           0.5500     0.8450    -0.6790 c3         1 2ZT       0.109300
     10 O10         -0.4340    -0.0550    -0.1230 os         1 2ZT      -0.344100
     11 C11         -1.7830     0.2350    -0.1250 ca         1 2ZT       0.151100
     12 C12         -2.6550    -0.7080     0.4390 ca         1 2ZT      -0.135000
     13 C13         -4.0410    -0.4870     0.4750 ca         1 2ZT       0.304000
     14 N14         -4.8520    -1.4200     1.0270 nb         1 2ZT      -0.666000
     15 C15         -6.1850    -1.1870     1.0520 ca         1 2ZT       0.361900
     16 C16         -6.7650    -0.0210     0.5300 ca         1 2ZT      -0.180000
     17 C17         -5.9370     0.9540    -0.0440 ca         1 2ZT      -0.047000
     18 C18         -4.5520     0.7180    -0.0720 ca         1 2ZT      -0.117000
     19 C19         -3.6840     1.6690    -0.6390 ca         1 2ZT      -0.054000
     20 C20         -2.3010     1.4300    -0.6670 ca         1 2ZT      -0.180000
     21 N21          2.8620     0.9430     0.1700 nb         1 2ZT      -0.664000
     22 C22          4.1120     0.4410     0.3090 ca         1 2ZT       0.271000
     23 H1           4.8040     2.1080     1.4950 ha         1 2ZT       0.131000
     24 H2           7.1120     1.2270     1.7790 ha         1 2ZT       0.117000
     25 H3           7.7510    -0.9540     0.7550 ha         1 2ZT       0.116000
     26 H4           6.0800    -2.2500    -0.5530 ha         1 2ZT       0.116000
     27 H5           3.7970    -2.4830    -1.4650 ha         1 2ZT       0.121000
     28 H6           1.4900    -1.5310    -1.7080 ha         1 2ZT       0.136000
     29 H7           0.5190     1.8130    -0.1620 h1         1 2ZT       0.056700
     30 H8           0.3510     1.0210    -1.7440 h1         1 2ZT       0.056700
     31 H9          -2.2500    -1.6250     0.8540 ha         1 2ZT       0.146000
     32 H10         -6.8050    -1.9610     1.5030 h4         1 2ZT       0.018100
     33 H11         -7.8410     0.1190     0.5750 ha         1 2ZT       0.124000
     34 H12         -6.3620     1.8680    -0.4550 ha         1 2ZT       0.117000
     35 H13         -4.0790     2.5920    -1.0590 ha         1 2ZT       0.115000
     36 H14         -1.6520     2.1800    -1.1090 ha         1 2ZT       0.120000
@<TRIPOS>BOND
     1     1     2 ar  
     2     1    22 ar  
     3     1    23 1   
     4     2     3 ar  
     5     2    24 1   
     6     3     4 ar  
     7     3    25 1   
     8     4     5 ar  
     9     4    26 1   
    10     5     6 ar  
    11     5    22 ar  
    12     6     7 ar  
    13     6    27 1   
    14     7     8 ar  
    15     7    28 1   
    16     8     9 1   
    17     8    21 ar  
    18     9    10 1   
    19     9    29 1   
    20     9    30 1   
    21    10    11 1   
    22    11    12 ar  
    23    11    20 ar  
    24    12    13 ar  
    25    12    31 1   
    26    13    14 ar  
    27    13    18 ar  
    28    14    15 ar  
    29    15    16 ar  
    30    15    32 1   
    31    16    17 ar  
    32    16    33 1   
    33    17    18 ar  
    34    17    34 1   
    35    18    19 ar  
    36    19    20 ar  
    37    19    35 1   
    38    20    36 1   
    39    21    22 ar  
@<TRIPOS>SUBSTRUCTURE
     1 2ZT         1 TEMP              0 ****  ****    0 ROOT
