@<TRIPOS>MOLECULE
2ZU
   36    39     1     0     0
SMALL
No Charge or Current Charge


@<TRIPOS>ATOM
      1 C1           7.0300     1.5200    -0.9090 c3         1 2ZU      -0.120400
      2 C2           5.7570     0.8310    -0.5140 cc         1 2ZU       0.415200
      3 N3           4.5570     1.4060    -0.6780 nd         1 2ZU      -0.540100
      4 C4           3.6030     0.5060    -0.2210 ca         1 2ZU       0.130400
      5 C5           2.2250     0.7610    -0.2330 ca         1 2ZU      -0.099000
      6 C6           1.3310    -0.2130     0.2510 ca         1 2ZU       0.147100
      7 C7           1.8300    -1.4440     0.7450 ca         1 2ZU      -0.184000
      8 C8           3.2160    -1.6900     0.7520 ca         1 2ZU      -0.032000
      9 C9           4.0760    -0.6970     0.2620 ca         1 2ZU      -0.212000
     10 S10          5.8250    -0.8040     0.1830 ss         1 2ZU       0.001800
     11 O11         -0.0180     0.0810     0.2220 os         1 2ZU      -0.350100
     12 C12         -1.0190    -0.8460     0.6950 c3         1 2ZU       0.110300
     13 C13         -2.4110    -0.2300     0.5470 ca         1 2ZU       0.364300
     14 C14         -2.7280     0.9800     1.1920 ca         1 2ZU      -0.138000
     15 C15         -4.0140     1.5210     1.0460 ca         1 2ZU      -0.065000
     16 C16         -4.9440     0.8250     0.2540 ca         1 2ZU      -0.082000
     17 C17         -6.2460     1.3340     0.0820 ca         1 2ZU      -0.091000
     18 C18         -7.1740     0.6360    -0.7090 ca         1 2ZU      -0.106000
     19 C19         -6.8020    -0.5680    -1.3260 ca         1 2ZU      -0.102000
     20 C20         -5.5020    -1.0760    -1.1520 ca         1 2ZU      -0.083000
     21 C21         -4.5560    -0.3920    -0.3640 ca         1 2ZU       0.277000
     22 N22         -3.3110    -0.9040    -0.2140 nb         1 2ZU      -0.678000
     23 H1           7.8200     1.3290    -0.1730 hc         1 2ZU       0.062033
     24 H2           7.3760     1.1590    -1.8840 hc         1 2ZU       0.062033
     25 H3           6.8890     2.6050    -0.9770 hc         1 2ZU       0.062033
     26 H4           1.8480     1.7050    -0.6130 ha         1 2ZU       0.145000
     27 H5           1.1640    -2.2130     1.1240 ha         1 2ZU       0.123000
     28 H6           3.6110    -2.6320     1.1290 ha         1 2ZU       0.125000
     29 H7          -0.9720    -1.7840     0.1270 h1         1 2ZU       0.058700
     30 H8          -0.8550    -1.0820     1.7540 h1         1 2ZU       0.058700
     31 H9          -1.9810     1.4880     1.7950 ha         1 2ZU       0.141000
     32 H10         -4.2790     2.4560     1.5340 ha         1 2ZU       0.121000
     33 H11         -6.5390     2.2670     0.5580 ha         1 2ZU       0.116000
     34 H12         -8.1800     1.0300    -0.8420 ha         1 2ZU       0.116000
     35 H13         -7.5200    -1.1100    -1.9380 ha         1 2ZU       0.116000
     36 H14         -5.2210    -2.0090    -1.6330 ha         1 2ZU       0.130000
@<TRIPOS>BOND
     1     1     2 1   
     2     1    23 1   
     3     1    24 1   
     4     1    25 1   
     5     2     3 2   
     6     2    10 1   
     7     3     4 1   
     8     4     5 ar  
     9     4     9 ar  
    10     5     6 ar  
    11     5    26 1   
    12     6     7 ar  
    13     6    11 1   
    14     7     8 ar  
    15     7    27 1   
    16     8     9 ar  
    17     8    28 1   
    18     9    10 1   
    19    11    12 1   
    20    12    13 1   
    21    12    29 1   
    22    12    30 1   
    23    13    14 ar  
    24    13    22 ar  
    25    14    15 ar  
    26    14    31 1   
    27    15    16 ar  
    28    15    32 1   
    29    16    17 ar  
    30    16    21 ar  
    31    17    18 ar  
    32    17    33 1   
    33    18    19 ar  
    34    18    34 1   
    35    19    20 ar  
    36    19    35 1   
    37    20    21 ar  
    38    20    36 1   
    39    21    22 ar  
@<TRIPOS>SUBSTRUCTURE
     1 2ZU         1 TEMP              0 ****  ****    0 ROOT
