@<TRIPOS>MOLECULE
2ZU
   36    39     1     0     0
SMALL
abcg2


@<TRIPOS>ATOM
      1 C1           7.0830     1.5660    -0.0660 c3         1 2ZU      -0.120400
      2 C2           5.7770     0.8600    -0.0280 cc         1 2ZU       0.415200
      3 N3           4.6290     1.4390    -0.0330 nd         1 2ZU      -0.540100
      4 C4           3.6010     0.5250     0.0070 ca         1 2ZU       0.130400
      5 C5           2.2490     0.8470     0.0100 ca         1 2ZU      -0.099000
      6 C6           1.3130    -0.1780     0.0500 ca         1 2ZU       0.147100
      7 C7           1.7240    -1.5180     0.0880 ca         1 2ZU      -0.184000
      8 C8           3.0720    -1.8420     0.0850 ca         1 2ZU      -0.032000
      9 C9           4.0050    -0.8200     0.0440 ca         1 2ZU      -0.212000
     10 S10          5.7370    -0.8900     0.0260 ss         1 2ZU       0.001800
     11 O11          0.0190     0.2050     0.0500 os         1 2ZU      -0.350100
     12 C12         -0.9890    -0.7760     0.0610 c3         1 2ZU       0.110300
     13 C13         -2.3400    -0.1120     0.0300 ca         1 2ZU       0.364300
     14 C14         -2.5000     1.2920     0.0620 ca         1 2ZU      -0.138000
     15 C15         -3.7660     1.8050     0.0400 ca         1 2ZU      -0.065000
     16 C16         -4.8750     0.9360    -0.0150 ca         1 2ZU      -0.082000
     17 C17         -6.2130     1.3900    -0.0410 ca         1 2ZU      -0.091000
     18 C18         -7.2440     0.4920    -0.0950 ca         1 2ZU      -0.106000
     19 C19         -6.9770    -0.8940    -0.1260 ca         1 2ZU      -0.102000
     20 C20         -5.6910    -1.3600    -0.1020 ca         1 2ZU      -0.083000
     21 C21         -4.6060    -0.4550    -0.0450 ca         1 2ZU       0.277000
     22 N22         -3.3470    -0.9440    -0.0220 nb         1 2ZU      -0.678000
     23 H1           7.6780     1.3360     0.8180 hc         1 2ZU       0.062033
     24 H2           7.6640     1.2640    -0.9380 hc         1 2ZU       0.062033
     25 H3           6.9200     2.6400    -0.1080 hc         1 2ZU       0.062033
     26 H4           1.9330     1.8820    -0.0190 ha         1 2ZU       0.145000
     27 H5           1.0070    -2.3250     0.1200 ha         1 2ZU       0.123000
     28 H6           3.3740    -2.8800     0.1140 ha         1 2ZU       0.125000
     29 H7          -0.9030    -1.4440    -0.8030 h1         1 2ZU       0.058700
     30 H8          -0.9250    -1.3990     0.9620 h1         1 2ZU       0.058700
     31 H9          -1.6440     1.9490     0.1050 ha         1 2ZU       0.141000
     32 H10         -3.9250     2.8760     0.0650 ha         1 2ZU       0.121000
     33 H11         -6.4060     2.4550    -0.0170 ha         1 2ZU       0.116000
     34 H12         -8.2680     0.8390    -0.1140 ha         1 2ZU       0.116000
     35 H13         -7.8020    -1.5930    -0.1690 ha         1 2ZU       0.116000
     36 H14         -5.4810    -2.4220    -0.1250 ha         1 2ZU       0.130000
@<TRIPOS>BOND
     1     1     2 1   
     2     1    23 1   
     3     1    24 1   
     4     1    25 1   
     5     2     3 2   
     6     2    10 1   
     7     3     4 1   
     8     4     5 ar  
     9     4     9 ar  
    10     5     6 ar  
    11     5    26 1   
    12     6     7 ar  
    13     6    11 1   
    14     7     8 ar  
    15     7    27 1   
    16     8     9 ar  
    17     8    28 1   
    18     9    10 1   
    19    11    12 1   
    20    12    13 1   
    21    12    29 1   
    22    12    30 1   
    23    13    14 ar  
    24    13    22 ar  
    25    14    15 ar  
    26    14    31 1   
    27    15    16 ar  
    28    15    32 1   
    29    16    17 ar  
    30    16    21 ar  
    31    17    18 ar  
    32    17    33 1   
    33    18    19 ar  
    34    18    34 1   
    35    19    20 ar  
    36    19    35 1   
    37    20    21 ar  
    38    20    36 1   
    39    21    22 ar  
@<TRIPOS>SUBSTRUCTURE
     1 2ZU         1 TEMP              0 ****  ****    0 ROOT
