@<TRIPOS>MOLECULE
2ZV
   18    18     1     0     0
SMALL
No Charge or Current Charge


@<TRIPOS>ATOM
      1 C1           0.2700     2.6000     0.0340 c3         1 2ZV      -0.060800
      2 C2          -0.4470     1.2550    -0.0030 ca         1 2ZV       0.083700
      3 C3          -1.8490     1.2090     0.0280 ca         1 2ZV      -0.260000
      4 C4          -2.5040    -0.0300     0.0160 ca         1 2ZV       0.444900
      5 N5          -1.8430    -1.2060    -0.0230 nb         1 2ZV      -0.774000
      6 C6          -0.5240    -1.1480    -0.0540 ca         1 2ZV       0.693900
      7 N7          -0.0490    -2.3870    -0.0990 nv         1 2ZV      -1.057900
      8 C8           0.2320     0.0200    -0.0480 ca         1 2ZV      -0.330200
      9 N9           1.6960    -0.0630    -0.1030 no         1 2ZV       0.713200
     10 O10          2.2680    -0.7680     0.7380 o          1 2ZV      -0.420000
     11 O11          2.2810     0.5720    -0.9870 o          1 2ZV      -0.420000
     12 H1           0.6840     2.8510    -0.9490 hc         1 2ZV       0.063367
     13 H2          -0.4100     3.4100     0.3220 hc         1 2ZV       0.063367
     14 H3           1.0920     2.5940     0.7590 hc         1 2ZV       0.063367
     15 H4          -2.4380     2.1220     0.0640 ha         1 2ZV       0.134000
     16 H5          -3.5920    -0.0840     0.0410 h4         1 2ZV       0.025100
     17 H6          -0.7590    -3.0740     0.1180 hn         1 2ZV       0.518000
     18 H7           0.8470    -2.5380     0.3500 hn         1 2ZV       0.518000
@<TRIPOS>BOND
     1     1     2 1   
     2     1    12 1   
     3     1    13 1   
     4     1    14 1   
     5     2     3 ar  
     6     2     8 ar  
     7     3     4 ar  
     8     3    15 1   
     9     4     5 ar  
    10     4    16 1   
    11     5     6 ar  
    12     6     7 1   
    13     6     8 ar  
    14     7    17 1   
    15     7    18 1   
    16     8     9 1   
    17     9    10 1   
    18     9    11 1   
@<TRIPOS>SUBSTRUCTURE
     1 2ZV         1 TEMP              0 ****  ****    0 ROOT
