@<TRIPOS>MOLECULE
2ZV
   18    18     1     0     0
SMALL
bcc


@<TRIPOS>ATOM
      1 C1           0.2560     2.5900    -0.0050 c3         1 2ZV      -0.060800
      2 C2          -0.4330     1.2580    -0.0140 ca         1 2ZV       0.083700
      3 C3          -1.8190     1.2440     0.0090 ca         1 2ZV      -0.343300
      4 C4          -2.4840     0.0280     0.0140 ca         1 2ZV       0.510200
      5 N5          -1.8860    -1.1430     0.0360 nb         1 2ZV      -0.774000
      6 C6          -0.5470    -1.1930     0.0510 ca         1 2ZV       0.759200
      7 N7          -0.0320    -2.4270     0.0690 nv         1 2ZV      -0.947500
      8 C8           0.2130     0.0110    -0.0070 ca         1 2ZV      -0.395500
      9 N9           1.6450    -0.0550    -0.0810 no         1 2ZV       0.333200
     10 O10          2.2110    -1.0060     0.4270 o          1 2ZV      -0.230000
     11 O11          2.2420     0.8280    -0.6520 o          1 2ZV      -0.230000
     12 H1           0.6560     2.8350    -0.9880 hc         1 2ZV       0.063367
     13 H2          -0.4640     3.3600     0.2630 hc         1 2ZV       0.063367
     14 H3           1.0790     2.6350     0.7050 hc         1 2ZV       0.063367
     15 H4          -2.3760     2.1690     0.0260 ha         1 2ZV       0.152000
     16 H5          -3.5680     0.0090     0.0130 h4         1 2ZV       0.025100
     17 H6          -0.6770    -3.1980     0.1040 hn         1 2ZV       0.462800
     18 H7           0.9400    -2.6090     0.2340 hn         1 2ZV       0.462800
@<TRIPOS>BOND
     1     1     2 1   
     2     1    12 1   
     3     1    13 1   
     4     1    14 1   
     5     2     3 ar  
     6     2     8 ar  
     7     3     4 ar  
     8     3    15 1   
     9     4     5 ar  
    10     4    16 1   
    11     5     6 ar  
    12     6     7 1   
    13     6     8 ar  
    14     7    17 1   
    15     7    18 1   
    16     8     9 1   
    17     9    10 1   
    18     9    11 1   
@<TRIPOS>SUBSTRUCTURE
     1 2ZV         1 TEMP              0 ****  ****    0 ROOT
