@<TRIPOS>MOLECULE
2ZW
   44    46     1     0     0
SMALL
abcg2


@<TRIPOS>ATOM
      1 CP3         -7.2620    -0.4680     0.0670 c3         1 2ZW      -0.085100
      2 CP1         -6.3680     0.4710    -0.7410 c3         1 2ZW      -0.012400
      3 CP2         -6.5810     1.9220    -0.3090 c3         1 2ZW      -0.085100
      4 C44         -4.9120     0.0790    -0.6430 ca         1 2ZW      -0.092300
      5 C45         -4.2530     0.0170     0.5830 ca         1 2ZW      -0.084500
      6 C46         -2.9170    -0.3390     0.6800 ca         1 2ZW      -0.137500
      7 C43         -4.1760    -0.2300    -1.7830 ca         1 2ZW      -0.084500
      8 C42         -2.8370    -0.5770    -1.7070 ca         1 2ZW      -0.137500
      9 C41         -2.1920    -0.6330    -0.4740 ca         1 2ZW      -0.032000
     10 N3          -0.8450    -1.0300    -0.4530 ns         1 2ZW      -0.146000
     11 C3           0.1070    -0.6130     0.4190 c          1 2ZW       0.654700
     12 O3          -0.0860     0.1680     1.3310 o          1 2ZW      -0.560100
     13 C25          1.4420    -1.1970     0.1910 cc         1 2ZW      -0.283600
     14 C24          1.8030    -2.4650    -0.1480 cd         1 2ZW       0.225300
     15 CM           1.0400    -3.6860    -0.4920 c3         1 2ZW      -0.148400
     16 O23          3.1310    -2.5500    -0.1270 os         1 2ZW      -0.065700
     17 N22          3.6800    -1.3530     0.2190 nd         1 2ZW      -0.348300
     18 C21          2.6850    -0.5420     0.4210 cc         1 2ZW       0.372500
     19 C11          2.9430     0.8380     0.8520 ca         1 2ZW      -0.128500
     20 C12          2.4690     1.9400     0.1450 ca         1 2ZW       0.155000
     21 CL           1.5580     1.7100    -1.3100 cl         1 2ZW      -0.200000
     22 C13          2.7330     3.2340     0.5630 ca         1 2ZW      -0.105000
     23 C14          3.4860     3.4390     1.7100 ca         1 2ZW      -0.086000
     24 C15          3.9770     2.3560     2.4250 ca         1 2ZW      -0.112000
     25 C16          3.7060     1.0670     1.9940 ca         1 2ZW      -0.064000
     26 H1          -8.3150    -0.2270    -0.0910 hc         1 2ZW       0.034867
     27 H2          -7.1120    -1.5100    -0.2170 hc         1 2ZW       0.034867
     28 H3          -7.0650    -0.3810     1.1380 hc         1 2ZW       0.034867
     29 H4          -6.6570     0.3880    -1.7930 hc         1 2ZW       0.047700
     30 H5          -5.9700     2.6090    -0.8960 hc         1 2ZW       0.034867
     31 H6          -7.6260     2.2130    -0.4330 hc         1 2ZW       0.034867
     32 H7          -6.3230     2.0580     0.7430 hc         1 2ZW       0.034867
     33 H8          -4.7870     0.2420     1.4990 ha         1 2ZW       0.113000
     34 H9          -2.4580    -0.3970     1.6550 ha         1 2ZW       0.123000
     35 H10         -4.6550    -0.1940    -2.7550 ha         1 2ZW       0.113000
     36 H11         -2.2900    -0.8060    -2.6140 ha         1 2ZW       0.123000
     37 H12         -0.5230    -1.4980    -1.2860 hn         1 2ZW       0.150000
     38 H13          0.9560    -3.7990    -1.5740 hc         1 2ZW       0.070700
     39 H14          1.5320    -4.5740    -0.1010 hc         1 2ZW       0.070700
     40 H15          0.0350    -3.6370    -0.0790 hc         1 2ZW       0.070700
     41 H16          2.3590     4.0750    -0.0040 ha         1 2ZW       0.132000
     42 H17          3.6880     4.4490     2.0390 ha         1 2ZW       0.119000
     43 H18          4.5660     2.5120     3.3190 ha         1 2ZW       0.121000
     44 H19          4.0780     0.2200     2.5560 ha         1 2ZW       0.127000
@<TRIPOS>BOND
     1     1     2 1   
     2     1    26 1   
     3     1    27 1   
     4     1    28 1   
     5     2     3 1   
     6     2     4 1   
     7     2    29 1   
     8     3    30 1   
     9     3    31 1   
    10     3    32 1   
    11     4     5 ar  
    12     4     7 ar  
    13     5     6 ar  
    14     5    33 1   
    15     6     9 ar  
    16     6    34 1   
    17     7     8 ar  
    18     7    35 1   
    19     8     9 ar  
    20     8    36 1   
    21     9    10 1   
    22    10    11 1   
    23    10    37 1   
    24    11    12 2   
    25    11    13 1   
    26    13    14 2   
    27    13    18 1   
    28    14    15 1   
    29    14    16 1   
    30    15    38 1   
    31    15    39 1   
    32    15    40 1   
    33    16    17 1   
    34    17    18 2   
    35    18    19 1   
    36    19    20 ar  
    37    19    25 ar  
    38    20    21 1   
    39    20    22 ar  
    40    22    23 ar  
    41    22    41 1   
    42    23    24 ar  
    43    23    42 1   
    44    24    25 ar  
    45    24    43 1   
    46    25    44 1   
@<TRIPOS>SUBSTRUCTURE
     1 2ZW         1 TEMP              0 ****  ****    0 ROOT
