@<TRIPOS>MOLECULE
2ZW
   44    46     1     0     0
SMALL
No Charge or Current Charge


@<TRIPOS>ATOM
      1 CP3         -7.2270    -0.0300     0.7830 c3         1 2ZW      -0.085100
      2 CP1         -6.5750     0.0640    -0.6140 c3         1 2ZW      -0.012400
      3 CP2         -6.9120     1.3990    -1.3130 c3         1 2ZW      -0.085100
      4 C44         -5.0630    -0.1660    -0.5440 ca         1 2ZW      -0.092300
      5 C45         -4.2300     0.7080     0.1820 ca         1 2ZW      -0.084500
      6 C46         -2.8420     0.4910     0.2420 ca         1 2ZW      -0.137500
      7 C43         -4.4820    -1.2590    -1.2140 ca         1 2ZW      -0.084500
      8 C42         -3.0950    -1.4760    -1.1550 ca         1 2ZW      -0.137500
      9 C41         -2.2610    -0.6100    -0.4240 ca         1 2ZW      -0.032000
     10 N3          -0.8670    -0.8900    -0.4150 ns         1 2ZW      -0.146000
     11 C3           0.1910    -0.3620     0.3130 c          1 2ZW       0.654700
     12 O3           0.0450     0.4870     1.1820 o          1 2ZW      -0.560100
     13 C25          1.5120    -0.9420    -0.0210 cc         1 2ZW      -0.283600
     14 C24          1.7910    -2.0700    -0.7360 cd         1 2ZW       0.225300
     15 CM           0.9230    -3.0680    -1.4590 c3         1 2ZW      -0.148400
     16 O23          3.1310    -2.3320    -0.6720 os         1 2ZW      -0.065700
     17 N22          3.7600    -1.3120     0.1110 nd         1 2ZW      -0.348300
     18 C21          2.7700    -0.5050     0.4630 cc         1 2ZW       0.372500
     19 C11          3.0800     0.7640     1.1360 ca         1 2ZW      -0.128500
     20 C12          2.6030     2.0170     0.6700 ca         1 2ZW       0.155000
     21 Cl           1.7190     2.1820    -0.8520 cl         1 2ZW      -0.200000
     22 C13          2.9520     3.2020     1.3410 ca         1 2ZW      -0.105000
     23 C14          3.7990     3.1660     2.4590 ca         1 2ZW      -0.086000
     24 C15          4.3310     1.9410     2.8870 ca         1 2ZW      -0.112000
     25 C16          3.9900     0.7530     2.2180 ca         1 2ZW      -0.064000
     26 H1          -8.3180     0.0550     0.7060 hc         1 2ZW       0.034867
     27 H2          -6.9930    -0.9940     1.2510 hc         1 2ZW       0.034867
     28 H3          -6.8680     0.7690     1.4430 hc         1 2ZW       0.034867
     29 H4          -7.0250    -0.7300    -1.2230 hc         1 2ZW       0.047700
     30 H5          -6.4590     1.4350    -2.3110 hc         1 2ZW       0.034867
     31 H6          -7.9970     1.5120    -1.4290 hc         1 2ZW       0.034867
     32 H7          -6.5400     2.2540    -0.7370 hc         1 2ZW       0.034867
     33 H8          -4.6550     1.5630     0.7020 ha         1 2ZW       0.113000
     34 H9          -2.2380     1.1970     0.8020 ha         1 2ZW       0.123000
     35 H10         -5.1040    -1.9460    -1.7840 ha         1 2ZW       0.113000
     36 H11         -2.6680    -2.3270    -1.6810 ha         1 2ZW       0.123000
     37 H12         -0.5960    -1.6000    -1.0810 hn         1 2ZW       0.150000
     38 H13          0.4220    -2.6090    -2.3190 hc         1 2ZW       0.070700
     39 H14          1.5220    -3.9040    -1.8400 hc         1 2ZW       0.070700
     40 H15          0.1620    -3.4900    -0.7920 hc         1 2ZW       0.070700
     41 H16          2.5850     4.1570     0.9730 ha         1 2ZW       0.132000
     42 H17          4.0680     4.0870     2.9710 ha         1 2ZW       0.119000
     43 H18          5.0110     1.9100     3.7360 ha         1 2ZW       0.121000
     44 H19          4.4110    -0.1880     2.5660 ha         1 2ZW       0.127000
@<TRIPOS>BOND
     1     1     2 1   
     2     1    26 1   
     3     1    27 1   
     4     1    28 1   
     5     2     3 1   
     6     2     4 1   
     7     2    29 1   
     8     3    30 1   
     9     3    31 1   
    10     3    32 1   
    11     4     5 ar  
    12     4     7 ar  
    13     5     6 ar  
    14     5    33 1   
    15     6     9 ar  
    16     6    34 1   
    17     7     8 ar  
    18     7    35 1   
    19     8     9 ar  
    20     8    36 1   
    21     9    10 1   
    22    10    11 1   
    23    10    37 1   
    24    11    12 2   
    25    11    13 1   
    26    13    14 2   
    27    13    18 1   
    28    14    15 1   
    29    14    16 1   
    30    15    38 1   
    31    15    39 1   
    32    15    40 1   
    33    16    17 1   
    34    17    18 2   
    35    18    19 1   
    36    19    20 ar  
    37    19    25 ar  
    38    20    21 1   
    39    20    22 ar  
    40    22    23 ar  
    41    22    41 1   
    42    23    24 ar  
    43    23    42 1   
    44    24    25 ar  
    45    24    43 1   
    46    25    44 1   
@<TRIPOS>SUBSTRUCTURE
     1 2ZW         1 TEMP              0 ****  ****    0 ROOT
