@<TRIPOS>MOLECULE
2ZX
   14    14     1     0     0
SMALL
bcc


@<TRIPOS>ATOM
      1 N1          -1.9330     2.2410    -0.0130 nv         1 2ZX      -0.972500
      2 C2          -1.1680     1.1450    -0.0190 ca         1 2ZX       0.764200
      3 C3           0.2410     1.2410    -0.0150 ca         1 2ZX      -0.501600
      4 C4           0.8920     0.0360    -0.0260 ca         1 2ZX       0.615300
      5 CL5          2.6290     0.0320    -0.0160 cl         1 2ZX      -0.177000
      6 N6           0.3220    -1.1480    -0.0440 nb         1 2ZX      -0.808000
      7 C7          -1.0190    -1.1250    -0.0520 ca         1 2ZX       0.959900
      8 N8          -1.6420    -2.3140    -0.1040 nv         1 2ZX      -0.953500
      9 N9          -1.7850    -0.0360    -0.0370 nb         1 2ZX      -0.867000
     10 H1          -1.5320     3.1600     0.0450 hn         1 2ZX       0.444800
     11 H2          -2.9340     2.1570     0.0250 hn         1 2ZX       0.444800
     12 H3           0.7560     2.1890     0.0000 ha         1 2ZX       0.161000
     13 H4          -1.1140    -3.1560     0.0470 hn         1 2ZX       0.444800
     14 H5          -2.6360    -2.3550     0.0380 hn         1 2ZX       0.444800
@<TRIPOS>BOND
     1     1     2 1   
     2     1    10 1   
     3     1    11 1   
     4     2     3 ar  
     5     2     9 ar  
     6     3     4 ar  
     7     3    12 1   
     8     4     5 1   
     9     4     6 ar  
    10     6     7 ar  
    11     7     8 1   
    12     7     9 ar  
    13     8    13 1   
    14     8    14 1   
@<TRIPOS>SUBSTRUCTURE
     1 2ZX         1 TEMP              0 ****  ****    0 ROOT
