@<TRIPOS>MOLECULE
2ZX
   14    14     1     0     0
SMALL
No Charge or Current Charge


@<TRIPOS>ATOM
      1 N1          -1.9450     2.2400    -0.0990 nv         1 2ZX      -1.082900
      2 C2          -1.1630     1.1390    -0.0850 ca         1 2ZX       0.435900
      3 C3           0.2240     1.2380    -0.0400 ca         1 2ZX      -0.353000
      4 C4           0.9410     0.0340    -0.0270 ca         1 2ZX       0.287000
      5 Cl5          2.6960     0.0310     0.0280 cl         1 2ZX      -0.177000
      6 N6           0.3200    -1.1590    -0.0550 nb         1 2ZX      -0.282000
      7 C7          -1.0180    -1.1140    -0.0980 ca         1 2ZX       0.433900
      8 N8          -1.6560    -2.3050    -0.1250 nv         1 2ZX      -1.063900
      9 N9          -1.8030    -0.0320    -0.1130 nb         1 2ZX      -0.341000
     10 H1          -1.5340     3.1300     0.1710 hn         1 2ZX       0.500000
     11 H2          -2.9380     2.1240     0.0850 hn         1 2ZX       0.500000
     12 H3           0.7320     2.1970    -0.0190 ha         1 2ZX       0.143000
     13 H4          -1.1270    -3.1370     0.1260 hn         1 2ZX       0.500000
     14 H5          -2.6520    -2.3200     0.0790 hn         1 2ZX       0.500000
@<TRIPOS>BOND
     1     1     2 1   
     2     1    10 1   
     3     1    11 1   
     4     2     3 ar  
     5     2     9 ar  
     6     3     4 ar  
     7     3    12 1   
     8     4     5 1   
     9     4     6 ar  
    10     6     7 ar  
    11     7     8 1   
    12     7     9 ar  
    13     8    13 1   
    14     8    14 1   
@<TRIPOS>SUBSTRUCTURE
     1 2ZX         1 TEMP              0 ****  ****    0 ROOT
