@<TRIPOS>MOLECULE
2ZY
   31    32     1     0     0
SMALL
No Charge or Current Charge


@<TRIPOS>ATOM
      1 O18          1.9810    -2.2150     0.9340 o          1 2ZY      -0.487000
      2 C15          1.6850    -1.0520     0.7000 c          1 2ZY       0.541200
      3 N14          2.5120     0.0420     0.6400 n          1 2ZY      -0.373300
      4 C16          3.9760    -0.0360     0.8970 c3         1 2ZY       0.048000
      5 C19          4.8470    -0.2290    -0.3670 c3         1 2ZY       0.282000
      6 C13          1.7640     1.1750     0.3680 cc         1 2ZY       0.473900
      7 C17          2.3490     2.5550     0.2810 c3         1 2ZY      -0.132400
      8 C11          0.3800    -0.4330     0.4100 cd         1 2ZY      -0.018600
      9 N12          0.4590     0.9440     0.2110 nd         1 2ZY      -0.596300
     10 C10         -0.8110    -1.1300     0.3440 ce         1 2ZY      -0.023200
     11 C2          -2.2170    -0.6480     0.1810 ca         1 2ZY      -0.071800
     12 C1          -3.1660    -1.4910    -0.4330 ca         1 2ZY      -0.090500
     13 C6          -4.4980    -1.0720    -0.5940 ca         1 2ZY       0.113500
     14 F8          -5.3830    -1.9030    -1.1940 f          1 2ZY      -0.169000
     15 C5          -4.9100     0.1980    -0.1370 ca         1 2ZY       0.090100
     16 O9          -6.2130     0.6100    -0.2920 oh         1 2ZY      -0.502100
     17 C4          -3.9630     1.0360     0.4880 ca         1 2ZY       0.113500
     18 F7          -4.3340     2.2540     0.9450 f          1 2ZY      -0.169000
     19 C3          -2.6320     0.6180     0.6480 ca         1 2ZY      -0.090500
     20 F20          4.5130    -1.3650    -1.0200 f          1 2ZY      -0.109333
     21 F21          4.7030     0.8030    -1.2280 f          1 2ZY      -0.109333
     22 F22          6.1550    -0.3110    -0.0330 f          1 2ZY      -0.109333
     23 H1           4.3040     0.8740     1.4140 h1         1 2ZY       0.094700
     24 H2           4.1720    -0.8720     1.5810 h1         1 2ZY       0.094700
     25 H4           2.9580     2.6650    -0.6230 hc         1 2ZY       0.069367
     26 H5           1.5580     3.3120     0.2420 hc         1 2ZY       0.069367
     27 H6           2.9750     2.7740     1.1520 hc         1 2ZY       0.069367
     28 H7          -0.7140    -2.2110     0.4580 ha         1 2ZY       0.198000
     29 H9          -2.8730    -2.4740    -0.7950 ha         1 2ZY       0.154500
     30 H10         -6.3010     1.5120     0.0880 ho         1 2ZY       0.484000
     31 H11         -1.9320     1.2800     1.1490 ha         1 2ZY       0.154500
@<TRIPOS>BOND
     1     1     2 2   
     2     2     3 1   
     3     2     8 1   
     4     3     4 1   
     5     3     6 1   
     6     4     5 1   
     7     4    23 1   
     8     4    24 1   
     9     5    20 1   
    10     5    21 1   
    11     5    22 1   
    12     6     7 1   
    13     6     9 2   
    14     7    25 1   
    15     7    26 1   
    16     7    27 1   
    17     8     9 1   
    18     8    10 2   
    19    10    11 1   
    20    10    28 1   
    21    11    12 ar  
    22    11    19 ar  
    23    12    13 ar  
    24    12    29 1   
    25    13    14 1   
    26    13    15 ar  
    27    15    16 1   
    28    15    17 ar  
    29    16    30 1   
    30    17    18 1   
    31    17    19 ar  
    32    19    31 1   
@<TRIPOS>SUBSTRUCTURE
     1 2ZY         1 TEMP              0 ****  ****    0 ROOT
