@<TRIPOS>MOLECULE
2ZY
   31    32     1     0     0
SMALL
bcc


@<TRIPOS>ATOM
      1 O18          1.9830    -2.2160     0.5390 o          1 2ZY      -0.562500
      2 C15          1.6670    -1.0480     0.5250 c          1 2ZY       0.683700
      3 N14          2.5260     0.0320     0.6410 n          1 2ZY      -0.440300
      4 C16          3.9490    -0.0840     0.7850 c3         1 2ZY       0.048000
      5 C19          4.6450    -0.1520    -0.5600 c3         1 2ZY       0.645900
      6 C13          1.7670     1.1930     0.6330 cc         1 2ZY       0.473900
      7 C17          2.3760     2.5270     0.8220 c3         1 2ZY      -0.132400
      8 C11          0.3420    -0.4000     0.4090 cd         1 2ZY      -0.018600
      9 N12          0.5050     0.9760     0.4920 nd         1 2ZY      -0.596300
     10 C10         -0.7970    -1.1000     0.2540 ce         1 2ZY       0.026800
     11 C2          -2.1550    -0.6170     0.1230 ca         1 2ZY      -0.071800
     12 C1          -3.1710    -1.5680    -0.0330 ca         1 2ZY      -0.108500
     13 C6          -4.4780    -1.1680    -0.1630 ca         1 2ZY       0.078400
     14 F8          -5.4460    -2.0800    -0.3100 f          1 2ZY      -0.133900
     15 C5          -4.8520     0.1720    -0.1480 ca         1 2ZY       0.090100
     16 O9          -6.1410     0.4910    -0.2810 oh         1 2ZY      -0.463100
     17 C4          -3.8200     1.0960     0.0090 ca         1 2ZY       0.078400
     18 F7          -4.1670     2.3940     0.0240 f          1 2ZY      -0.133900
     19 C3          -2.5020     0.7390     0.1430 ca         1 2ZY      -0.108500
     20 F20          4.2250    -1.1860    -1.2950 f          1 2ZY      -0.230633
     21 F21          4.4350     0.9500    -1.2920 f          1 2ZY      -0.230633
     22 F22          5.9650    -0.2800    -0.3980 f          1 2ZY      -0.230633
     23 H1           4.3440     0.7610     1.3490 h1         1 2ZY       0.094700
     24 H2           4.1830    -0.9880     1.3490 h1         1 2ZY       0.094700
     25 H4           3.1290     2.7420     0.0650 hc         1 2ZY       0.069367
     26 H5           1.6030     3.2880     0.7750 hc         1 2ZY       0.069367
     27 H6           2.8680     2.5880     1.7950 hc         1 2ZY       0.069367
     28 H7          -0.6810    -2.1790     0.2210 ha         1 2ZY       0.148000
     29 H9          -2.9390    -2.6260    -0.0510 ha         1 2ZY       0.172500
     30 H10         -6.2680     1.4480    -0.2660 ho         1 2ZY       0.445000
     31 H11         -1.7480     1.5050     0.2600 ha         1 2ZY       0.172500
@<TRIPOS>BOND
     1     1     2 2   
     2     2     3 1   
     3     2     8 1   
     4     3     4 1   
     5     3     6 1   
     6     4     5 1   
     7     4    23 1   
     8     4    24 1   
     9     5    20 1   
    10     5    21 1   
    11     5    22 1   
    12     6     7 1   
    13     6     9 2   
    14     7    25 1   
    15     7    26 1   
    16     7    27 1   
    17     8     9 1   
    18     8    10 2   
    19    10    11 1   
    20    10    28 1   
    21    11    12 ar  
    22    11    19 ar  
    23    12    13 ar  
    24    12    29 1   
    25    13    14 1   
    26    13    15 ar  
    27    15    16 1   
    28    15    17 ar  
    29    16    30 1   
    30    17    18 1   
    31    17    19 ar  
    32    19    31 1   
@<TRIPOS>SUBSTRUCTURE
     1 2ZY         1 TEMP              0 ****  ****    0 ROOT
