@<TRIPOS>MOLECULE
2ZZ
   27    28     1     0     0
SMALL
No Charge or Current Charge


@<TRIPOS>ATOM
      1 O18          4.1060    -1.6200    -0.5130 o          1 2ZZ      -0.508000
      2 C15          3.4120    -0.6460    -0.2520 c          1 2ZZ       0.537200
      3 N14          3.8020     0.6540    -0.0520 n          1 2ZZ      -0.363300
      4 C16          5.2040     1.1080    -0.1240 c3         1 2ZZ       0.100300
      5 C13          2.6990     1.4370     0.2220 cc         1 2ZZ       0.465900
      6 C17          2.7950     2.9100     0.4900 c3         1 2ZZ      -0.127400
      7 C11          1.9530    -0.5280    -0.0660 cd         1 2ZZ      -0.016600
      8 N12          1.5420     0.7720     0.2280 nd         1 2ZZ      -0.606300
      9 C10          1.0710    -1.5870    -0.1600 ce         1 2ZZ      -0.038200
     10 C2          -0.4210    -1.6320    -0.0640 ca         1 2ZZ      -0.076800
     11 C1          -1.0430    -2.8140     0.3890 ca         1 2ZZ      -0.077000
     12 C6          -2.4430    -2.8950     0.4820 ca         1 2ZZ      -0.121000
     13 C5          -3.2380    -1.7970     0.1150 ca         1 2ZZ      -0.067000
     14 C4          -2.6280    -0.6210    -0.3500 ca         1 2ZZ      -0.031900
     15 Br7         -3.7070     0.8720    -0.8650 br         1 2ZZ      -0.098100
     16 C3          -1.2280    -0.5370    -0.4430 ca         1 2ZZ      -0.040000
     17 H1           5.8700     0.2720    -0.3700 h1         1 2ZZ       0.050033
     18 H2           5.3020     1.8790    -0.8980 h1         1 2ZZ       0.050033
     19 H3           5.5050     1.5290     0.8440 h1         1 2ZZ       0.050033
     20 H5           3.2250     3.4330    -0.3720 hc         1 2ZZ       0.065033
     21 H6           1.8070     3.3410     0.6880 hc         1 2ZZ       0.065033
     22 H7           3.4290     3.1050     1.3620 hc         1 2ZZ       0.065033
     23 H8           1.5410    -2.5560    -0.3340 ha         1 2ZZ       0.193000
     24 H10         -0.4380    -3.6710     0.6780 ha         1 2ZZ       0.117000
     25 H11         -2.9120    -3.8100     0.8380 ha         1 2ZZ       0.120000
     26 H12         -4.3220    -1.8600     0.1850 ha         1 2ZZ       0.130000
     27 H13         -0.7780     0.3760    -0.8220 ha         1 2ZZ       0.163000
@<TRIPOS>BOND
     1     1     2 2   
     2     2     3 1   
     3     2     7 1   
     4     3     4 1   
     5     3     5 1   
     6     4    17 1   
     7     4    18 1   
     8     4    19 1   
     9     5     6 1   
    10     5     8 2   
    11     6    20 1   
    12     6    21 1   
    13     6    22 1   
    14     7     8 1   
    15     7     9 2   
    16     9    10 1   
    17     9    23 1   
    18    10    11 ar  
    19    10    16 ar  
    20    11    12 ar  
    21    11    24 1   
    22    12    13 ar  
    23    12    25 1   
    24    13    14 ar  
    25    13    26 1   
    26    14    15 1   
    27    14    16 ar  
    28    16    27 1   
@<TRIPOS>SUBSTRUCTURE
     1 2ZZ         1 TEMP              0 ****  ****    0 ROOT
