@<TRIPOS>MOLECULE
2ZZ
   27    28     1     0     0
SMALL
bcc


@<TRIPOS>ATOM
      1 O18          4.0490    -1.6430     0.0020 o          1 2ZZ      -0.583500
      2 C15          3.3510    -0.6520     0.0100 c          1 2ZZ       0.679700
      3 N14          3.7800     0.6550     0.0090 n          1 2ZZ      -0.430300
      4 C16          5.1590     1.0820     0.0260 c3         1 2ZZ       0.100300
      5 C13          2.6700     1.4730     0.0300 cc         1 2ZZ       0.465900
      6 C17          2.8060     2.9450     0.0360 c3         1 2ZZ      -0.127400
      7 C11          1.8700    -0.5140     0.0230 cd         1 2ZZ      -0.016600
      8 N12          1.5470     0.8350     0.0370 nd         1 2ZZ      -0.606300
      9 C10          1.0460    -1.5760     0.0220 ce         1 2ZZ       0.011800
     10 C2          -0.4060    -1.6120     0.0310 ca         1 2ZZ      -0.076800
     11 C1          -1.0300    -2.8640     0.0480 ca         1 2ZZ      -0.095000
     12 C6          -2.4100    -2.9710     0.0580 ca         1 2ZZ      -0.139000
     13 C5          -3.2030    -1.8320     0.0490 ca         1 2ZZ      -0.085000
     14 C4          -2.5810    -0.5900     0.0300 ca         1 2ZZ      -0.031900
     15 BR7         -3.6480     0.9700     0.0150 br         1 2ZZ      -0.098100
     16 C3          -1.2050    -0.4600     0.0220 ca         1 2ZZ      -0.058000
     17 H1           5.7920     0.2210    -0.1710 h1         1 2ZZ       0.050033
     18 H2           5.3410     1.8260    -0.7460 h1         1 2ZZ       0.050033
     19 H3           5.4310     1.4990     0.9950 h1         1 2ZZ       0.050033
     20 H5           3.3000     3.2930    -0.8730 hc         1 2ZZ       0.065033
     21 H6           1.8240     3.4060     0.0980 hc         1 2ZZ       0.065033
     22 H7           3.4080     3.2810     0.8820 hc         1 2ZZ       0.065033
     23 H8           1.5330    -2.5460     0.0130 ha         1 2ZZ       0.143000
     24 H10         -0.4210    -3.7600     0.0550 ha         1 2ZZ       0.135000
     25 H11         -2.8780    -3.9460     0.0730 ha         1 2ZZ       0.138000
     26 H12         -4.2810    -1.9200     0.0560 ha         1 2ZZ       0.148000
     27 H13         -0.7380     0.5140     0.0070 ha         1 2ZZ       0.181000
@<TRIPOS>BOND
     1     1     2 2   
     2     2     3 1   
     3     2     7 1   
     4     3     4 1   
     5     3     5 1   
     6     4    17 1   
     7     4    18 1   
     8     4    19 1   
     9     5     6 1   
    10     5     8 2   
    11     6    20 1   
    12     6    21 1   
    13     6    22 1   
    14     7     8 1   
    15     7     9 2   
    16     9    10 1   
    17     9    23 1   
    18    10    11 ar  
    19    10    16 ar  
    20    11    12 ar  
    21    11    24 1   
    22    12    13 ar  
    23    12    25 1   
    24    13    14 ar  
    25    13    26 1   
    26    14    15 1   
    27    14    16 ar  
    28    16    27 1   
@<TRIPOS>SUBSTRUCTURE
     1 2ZZ         1 TEMP              0 ****  ****    0 ROOT
